version 2
run conf3-0-20161125-01:35:19-2972
attr configname conf3
attr datetime 20161125-01:35:19
attr experiment conf3
attr i 3
attr inifile omnetpp.ini
attr iterationvars "$i=3, $p=5, $q=1"
attr iterationvars2 "$i=3, $p=5, $q=1, $repetition=0"
attr measurement "$i=3, $p=5, $q=1"
attr network Omrezje
attr p 5
attr processid 2972
attr q 1
attr repetition 0
attr replication #0
attr resultdir results
attr runnumber 0
attr seedset 0
param Omrezje.router*.processingTime "truncnormal(${p = 5..7 step 2}, ${p} * 0.5)"
param Omrezje.router*.queueCapacity "truncnormal(${q = 1..6 step 5}, 0)"
param Omrezje.source*.interArrivalTime "truncnormal(${i = 3..5 step 2}, ${i} * 0.5)"

vector 0  Omrezje.router  droppedPackage:vector  ETV
attr interpolationmode  none
attr title  "drop package, vector"
vector 1  Omrezje.router  queueLength:vector  ETV
attr interpolationmode  none
attr title  "queue length, vector"
vector 2  Omrezje.router1  droppedPackage:vector  ETV
attr interpolationmode  none
attr title  "drop package, vector"
vector 3  Omrezje.router1  queueLength:vector  ETV
attr interpolationmode  none
attr title  "queue length, vector"
vector 4  Omrezje.router2  droppedPackage:vector  ETV
attr interpolationmode  none
attr title  "drop package, vector"
vector 5  Omrezje.router2  queueLength:vector  ETV
attr interpolationmode  none
attr title  "queue length, vector"
vector 6  Omrezje.router3  droppedPackage:vector  ETV
attr interpolationmode  none
attr title  "drop package, vector"
vector 7  Omrezje.router3  queueLength:vector  ETV
attr interpolationmode  none
attr title  "queue length, vector"
vector 8  Omrezje.router4  droppedPackage:vector  ETV
attr interpolationmode  none
attr title  "drop package, vector"
vector 9  Omrezje.router4  queueLength:vector  ETV
attr interpolationmode  none
attr title  "queue length, vector"
vector 10  Omrezje.router5  droppedPackage:vector  ETV
attr interpolationmode  none
attr title  "drop package, vector"
vector 11  Omrezje.router5  queueLength:vector  ETV
attr interpolationmode  none
attr title  "queue length, vector"
0	0	0	0
0	274	13.22585668771	1
0	388	20.323226660522	2
0	403	21.042056098644	3
0	409	21.324201507541	4
0	485	25.802570123305	5
0	573	30.793641895106	6
0	593	32.262783239655	7
0	634	34.958321457229	8
0	650	36.028849512398	9
0	723	40.22033942048	10
0	740	41.26405712969	11
0	781	43.881660938336	12
0	799	44.844626221949	13
0	873	49.116868555628	14
0	959	54.365654271271	15
0	1083	62.204887598858	16
0	1086	62.234583945058	17
0	1293	75.51716845449	18
0	1398	81.997255603929	19
0	1457	85.763321876672	20
0	1493	88.380925685318	21
0	1544	92.449766468559	22
0	1554	93.199425893579	23
0	1622	98.851340919902	24
0	1719	106.70415234584	25
0	1765	110.79049521133	26
0	1821	114.556963771778	27
0	1845	116.252336591864	28
0	1947	125.027379006362	29
0	1961	126.602684165344	30
0	2023	132.8801904323	31
0	2048	135.497794240946	32
0	2057	136.488601604884	33
0	2072	138.115398049592	34
0	2120	143.03766849603	35
0	2142	144.81542073983	36
0	2158	145.96820947553	37
0	2169	147.668268816544	38
0	2248	154.336448789152	39
0	2262	156.311709694585	40
0	2266	156.438624710114	41
0	2291	159.05622851876	42
0	2333	163.857476838474	43
0	2347	164.291436136052	44
0	2367	166.909039944698	45
0	2420	173.378504887796	46
0	2430	174.761851370636	47
0	2462	178.139018912457	48
0	2523	184.002187254439	49
0	2552	187.660046961779	50
0	2555	187.849870413866	51
0	2568	189.333146916345	52
0	2585	191.214943115729	53
0	2604	193.085078031158	54
0	2650	198.317516827479	55
0	2687	201.941589035762	56
0	2701	203.555493265742	57
0	2722	206.173097074388	58
0	2728	206.702103060423	59
0	2773	211.40830469168	60
0	2796	214.025908500326	61
0	2819	216.643512308972	62
0	2860	221.045752705079	63
0	2863	221.503752477711	64
0	2940	229.731531352202	65
0	2945	230.504673183728	66
0	2963	232.349135160848	67
0	2987	235.265187208389	68
0	3010	237.58434277814	69
0	3016	239.051162898595	70
0	3028	239.900523312739	71
0	3034	240.201946586786	72
0	3128	250.415280837395	73
0	3136	250.67236182137	74
0	3148	252.297077036779	75
0	3182	256.17620128264	76
0	3200	258.525173247308	77
0	3203	259.067757331694	78
0	3224	261.142777055954	79
0	3288	268.588785381016	80
0	3353	275.984546199695	81
0	3360	276.84839990783	82
0	3414	282.083607525122	83
0	3422	282.870327454999	84
0	3437	284.701211333768	85
0	3480	289.230460337879	86
0	3487	289.93641895106	87
0	3502	292.554022759706	88
0	3577	300.406834185644	89
0	3592	301.912383553643	90
0	3645	308.259645611582	91
0	3669	311.433411602965	92
0	3766	320.954439652287	93
0	3769	321.347664654812	94
0	3792	323.965268463458	95
0	3794	324.082786862237	96
0	3803	325.714953676948	97
0	3815	326.582872272104	98
0	3844	329.964106408995	99
0	3851	330.475467701609	100
0	3859	331.760752934396	101
0	3867	331.818079889396	102
0	3882	334.435683698042	103
0	3956	342.748739090145	104
0	4057	354.278037824914	105
0	4087	357.650885120127	106
0	4133	363.229325593148	107
0	4152	364.84583597222	108
0	4161	365.846929401794	109
0	4225	373.320093923558	110
0	4253	376.317344636378	111
0	4270	378.080607948219	112
0	4318	382.84112197288	113
0	4324	383.943666618295	114
0	4331	384.170156062316	115
0	4333	384.404948075329	116
0	4366	388.031113867234	117
0	4377	389.625725587695	118
0	4400	392.022967488254	119
0	4403	392.362150022202	120
0	4414	393.887269814745	121
0	4421	394.6405712969	122
0	4462	398.819807838321	123
0	4468	399.246959766321	124
0	4474	399.875778914192	125
0	4528	406.643692096185	126
0	4530	406.671902495895	127
0	4547	407.72859034013	128
0	4576	411.404206120846	129
0	4620	416.164720145507	130
0	4634	418.199005574714	131
0	4658	420.81660938336	132
0	4704	425.685748194829	133
0	4797	436.522232235236	134
0	4825	439.139836043882	135
0	4830	439.343741569945	136
0	4880	444.727804293473	137
0	4890	446.424948084931	138
0	4900	446.99264746982	139
0	4929	450.707859508745	140
0	4965	454.845458895758	141
0	4988	457.463062704404	142
0	5005	459.009346367456	143
0	5011	460.08066651305	144
0	5034	462.071977447545	145
0	5041	462.698270321696	146
0	5055	464.033718324969	147
0	5071	466.333521674595	148
0	5105	470.551081747634	149
0	5132	473.16868555628	150
0	5178	478.0514024661	151
0	5181	478.403893173572	152
0	5185	479.118154355745	153
0	5205	481.021496982218	154
0	5220	482.811916490761	155
0	5231	483.639100790864	156
0	5260	487.572430515422	157
0	5275	488.874308408156	158
0	5313	493.323301779245	159
0	5327	494.109516025448	160
0	5345	496.727119834094	161
0	5347	497.032869180919	162
0	5350	497.093458564744	163
0	5438	506.614486614066	164
0	5444	507.197535068678	165
0	5452	507.989730659779	166
0	5462	509.815138877324	167
0	5473	511.375000638727	168
0	5524	517.472052399195	169
0	5534	517.667950303262	170
0	5577	522.903157920554	171
0	5606	525.995140853295	172
0	5630	528.820476883617	173
0	5651	530.755969346492	174
0	5659	532.114200528829	175
0	5671	533.373573155138	176
0	5682	535.177570762032	177
0	5703	536.918821703448	178
0	5717	538.779773534445	179
0	5743	541.226384581076	180
0	5790	546.461592198368	181
0	5851	553.11551134311	182
0	5864	554.314403624306	183
0	5884	556.932007432952	184
0	5928	562.167215050244	185
0	5944	563.740654909998	186
0	5958	564.78481885889	187
0	6013	571.451612608495	188
0	6028	572.495622859624	189
0	6085	578.022196983981	190
0	6122	582.815730547295	191
0	6148	585.725649328058	192
0	6156	586.470206874199	193
0	6208	592.303739057964	194
0	6213	592.759333743745	195
0	6223	593.578460753996	196
0	6225	593.607235442265	197
0	6240	596.196064562642	198
0	6287	601.431272179934	199
0	6301	602.702936940195	200
0	6314	604.04887598858	201
0	6353	608.384995909595	202
0	6362	608.846277366629	203
0	6394	612.503373355204	204
0	6431	616.106309181269	205
0	6457	619.754498840456	206
0	6465	620.009208509179	207
0	6473	620.86682320593	208
0	6511	625.431172817795	209
0	6521	625.627337230591	210
0	6535	627.607310266394	211
0	6546	629.692717044845	212
0	6553	630.22491407504	213
0	6573	631.399511268143	214
0	6600	635.148365279913	215
0	6602	635.248645013212	216
0	6606	635.460121692332	217
0	6625	638.077725500978	218
0	6633	638.677086955979	219
0	6677	643.31293311827	220
0	6694	644.669393329235	221
0	6707	645.930536926916	222
0	6756	651.165744544208	223
0	6774	653.783348352854	224
0	6847	661.636159778792	225
0	6913	669.48897120473	226
0	6966	674.724178822022	227
0	6977	676.569703542395	228
0	6992	677.341782630668	229
0	7016	679.959386439314	230
0	7038	682.689028460406	231
0	7056	685.194594056606	232
0	7080	687.514019551184	233
0	7091	689.354336223545	234
0	7111	690.787373280237	235
0	7131	693.047405482544	236
0	7166	697.035047600506	237
0	7180	698.282613099836	238
0	7217	703.517820717128	239
0	7285	711.316589674489	240
0	7359	719.223443569004	241
0	7381	721.84104737765	242
0	7386	722.487456754629	243
0	7418	725.880200832838	244
0	7427	727.076254994942	245
0	7449	729.590030466379	246
0	7501	734.92906642088	247
0	7512	736.231322721095	248
0	7527	737.546670229526	249
0	7557	740.954148405179	250
0	7592	744.754411175195	251
0	7666	753.252293081402	252
0	7675	754.161215896438	253
0	7677	754.698014371645	254
0	7712	758.487500698694	255
0	7723	758.959558598695	256
0	7764	763.672476658716	257
0	7767	763.68224394576	258
0	7808	768.442757970421	259
0	7841	771.575519741924	260
0	7843	771.744191279845	261
0	7892	776.810727359216	262
0	7959	784.663538785154	263
0	7976	787.2811425938	264
0	8011	790.210882930395	265
0	8028	792.245328093726	266
0	8031	792.516350211092	267
0	8050	794.472427157445	268
0	8065	796.06585593804	269
0	8099	799.195252841529	270
0	8118	801.766356143048	271
0	8123	802.986765445676	272
0	8139	804.164200757871	273
0	8141	804.416030353895	274
0	8151	805.604369254322	275
0	8173	807.718341295629	276
0	8197	810.839576871614	277
0	8203	811.28738419237	278
0	8276	819.082459234429	279
0	8289	820.808412241692	280
0	8295	821.309992106198	281
0	8333	825.723751489145	282
0	8346	826.54519972349	283
0	8348	826.833051924889	284
0	8374	830.329440291014	285
0	8425	835.089954315675	286
0	8434	837.015614958074	287
0	8463	839.850468340336	288
0	8487	842.769928397345	289
0	8507	844.651724596729	290
0	8525	847.031472624395	291
0	8532	847.486030192658	292
0	8545	849.371496389658	293
0	8577	852.72123780995	294
0	8600	855.453717950134	295
0	8645	860.574049235888	296
0	8669	863.191653044534	297
0	8720	869.437190323348	298
0	8752	872.932104313125	299
0	8761	873.662068279118	300
0	8791	877.04930413635	301
0	8840	882.695094562285	302
0	8886	887.455608586946	303
0	8901	889.367691130994	304
0	8929	892.487944379595	305
0	8960	895.790255321329	306
0	8973	896.976636636268	307
0	8993	899.590518091345	308
0	9000	899.838106365578	309
0	9002	900.051799548379	310
0	9027	902.455710174224	311
0	9038	904.04378686912	312
0	9044	905.07331398287	313
0	9070	907.885639209424	314
0	9100	911.258178710251	315
0	9102	911.415917487179	316
0	9131	914.841579962228	317
0	9133	915.216180257195	318
0	9188	920.779206759573	319
0	9212	923.396540643392	320
0	9230	925.539720784234	321
0	9232	925.639373055336	322
0	9240	926.580298195995	323
0	9269	930.300234808895	324
0	9281	931.24935206933	325
0	9294	933.682871907745	326
0	9304	933.866955877976	327
0	9390	944.33737111256	328
0	9395	944.581776882878	329
0	9400	946.467504588895	330
0	9416	946.954974921206	331
0	9452	952.190182538498	332
0	9475	954.1028049322	333
0	9478	954.807786347144	334
0	9515	958.863318956861	335
0	9524	960.042993964436	336
0	9534	960.560462748319	337
0	9549	962.660597773082	338
0	9579	965.395477696479	339
0	9618	970.51340919902	340
0	9646	973.131013007666	341
0	9689	977.905375055505	342
0	9725	982.327786794153	343
0	9731	982.665889080166	344
0	9742	983.60142824225	345
0	9753	986.143309691044	346
0	9810	992.186917129488	347
0	9818	993.125579887261	348
0	9849	996.68944728548	349
0	9881	1000.117893705619	350
0	9893	1001.70794517881	351
0	9986	1011.297560917279	352
0	9995	1012.395070137356	353
0	10023	1015.989487252793	354
0	10038	1017.630277754648	355
0	10105	1025.510515302115	356
0	10168	1033.124423927404	357
0	10181	1033.335900606524	358
0	10193	1035.031543351437	359
0	10199	1035.95350441517	360
0	10236	1039.792057376098	361
0	10247	1041.188712032462	362
0	10265	1043.806315841108	363
0	10338	1051.659127267046	364
0	10358	1054.073599450081	365
0	10361	1054.276731075692	366
0	10363	1054.426625007495	367
0	10406	1058.834113474742	368
0	10412	1059.511938692984	369
0	10431	1062.12954250163	370
0	10449	1063.594627499403	371
0	10464	1064.747146310276	372
0	10478	1067.211257688645	373
0	10516	1071.409579812294	374
0	10556	1075.21756154486	375
0	10669	1087.397197622708	376
0	10696	1090.923184396736	377
0	10708	1092.157711647369	378
0	10745	1096.91822567203	379
0	10758	1097.939981807644	380
0	10767	1098.775995822674	381
0	10769	1099.883096762695	382
0	10784	1101.39359963132	383
0	10882	1111.864014865904	384
0	10904	1114.48161867455	385
0	10921	1116.929273670895	386
0	10946	1119.716826291842	387
0	10972	1122.334430100488	388
0	11010	1125.889149836794	389
0	11012	1126.872876867345	390
0	11019	1127.56963771778	391
0	11036	1130.187241526426	392
0	11044	1130.797441824388	393
0	11046	1131.134421094395	394
0	11093	1135.422449143718	395
0	11113	1138.040052952364	396
0	11128	1139.762851893979	397
0	11147	1141.539305747879	398
0	11162	1143.275260569656	399
0	11167	1143.919053775545	400
0	11179	1145.453567457199	401
0	11185	1145.892864378302	402
0	11208	1148.641879459629	403
0	11221	1149.283879943301	404
0	11232	1151.021627487295	405
0	11236	1151.128071995594	406
0	11258	1153.74567580424	407
0	11302	1158.804907992623	408
0	11305	1158.980883421532	409
0	11328	1161.598487230178	410
0	11394	1168.325936041945	411
0	11397	1169.451298656116	412
0	11419	1171.289165923543	413
0	11425	1172.068902464762	414
0	11427	1172.329348622545	415
0	11451	1174.686506273408	416
0	11476	1177.304110082054	417
0	11482	1177.846964091267	418
0	11530	1183.693466561345	419
0	11545	1185.156921507992	420
0	11568	1187.774525316638	421
0	11593	1190.796040273095	422
0	11614	1193.00973293393	423
0	11637	1195.627336742576	424
0	11678	1200.862544359868	425
0	11698	1203.480148168514	426
0	11726	1206.381993476144	427
0	11729	1206.410048239233	428
0	11751	1209.262731923645	429
0	11769	1211.332959594452	430
0	11799	1214.944790893045	431
0	11812	1215.931076288555	432
0	11818	1216.568167211744	433
0	11881	1224.420978637682	434
0	11900	1226.506154741734	435
0	11961	1233.872764000629	436
0	12014	1239.73364641186	437
0	12020	1240.126601489558	438
0	12025	1240.514056255345	439
0	12048	1242.744205298204	440
0	12060	1244.494160436521	441
0	12079	1246.070572362139	442
0	12106	1249.254674461182	443
0	12127	1251.878174194145	444
0	12163	1255.832224341434	445
0	12176	1257.250239573799	446
0	12240	1263.685035767372	447
0	12255	1266.083321617645	448
0	12262	1266.302639576018	449
0	12284	1268.920243384664	450
0	12307	1271.53784719331	451
0	12327	1273.868200308069	452
0	12334	1274.606410071745	453
0	12363	1277.817758609148	454
0	12382	1279.390658619248	455
0	12384	1279.514902400606	456
0	12399	1281.9665451279	457
0	12544	1297.795927406379	458
0	12608	1305.566696705708	459
0	12628	1308.184300514354	460
0	12636	1308.698763888145	461
0	12678	1313.208031452526	462
0	12682	1313.419508131646	463
0	12714	1317.059372680501	464
0	12771	1323.88992336623	465
0	12797	1326.507527174876	466
0	12847	1331.742734792168	467
0	12873	1334.360338600814	468
0	12918	1339.595546218106	469
0	12923	1339.950088219845	470
0	12976	1344.830753835398	471
0	12996	1348.473176673945	472
0	13013	1349.225468979063	473
0	13041	1352.683565261336	474
0	13043	1352.734720900995	475
0	13073	1355.301169069982	476
0	13078	1356.037031842729	477
0	13091	1357.918772878628	478
0	13095	1358.416779870395	479
0	13150	1363.507011053046	480
0	13187	1368.389188113212	481
0	13211	1371.048338146041	482
0	13229	1373.028039102368	483
0	13238	1373.624395730504	484
0	13258	1376.24199953915	485
0	13305	1381.477207156442	486
0	13310	1382.54906715169	487
0	13324	1384.094810965088	488
0	13373	1389.33001858238	489
0	13395	1391.947622391026	490
0	13403	1392.509133686795	491
0	13425	1395.343372605534	492
0	13440	1396.830609225673	493
0	13446	1397.182830008318	494
0	13454	1398.527753017131	495
0	13469	1399.800433816964	496
0	13481	1401.591123250334	497
0	13528	1406.351637274995	498
0	13554	1408.596077309679	499
0	13563	1410.270849051548	500
0	13572	1411.112151299656	501
0	13589	1412.888452860194	502
0	13597	1413.816854822045	503
0	13623	1416.93895879175	504
0	13649	1420.741264286132	505
0	13675	1423.760458018495	506
0	13697	1425.393693373639	507
0	13699	1425.634478642205	508
0	13702	1425.976471903424	509
0	13751	1431.211679520716	510
0	13762	1433.135648431412	511
0	13775	1434.914721422961	512
0	13812	1439.064490946654	513
0	13840	1441.6820947553	514
0	13842	1442.227149669045	515
0	13903	1449.196263496944	516
0	13928	1452.152509989884	517
0	13946	1453.956777521605	518
0	14023	1462.622925224468	519
0	14026	1463.477805570927	520
0	14051	1465.240529033114	521
0	14091	1470.475736650406	522
0	14113	1472.998833620249	523
0	14116	1473.093340459052	524
0	14126	1474.898988743095	525
0	14165	1478.328548076344	526
0	14170	1479.160532970145	527
0	14176	1479.621814427179	528
0	14203	1482.519861669571	529
0	14222	1484.842591939545	530
0	14251	1487.280375694232	531
0	14279	1491.416567119574	532
0	14285	1492.040889718893	533
0	14326	1496.651774736866	534
0	14329	1496.801403743554	535
0	14340	1497.627224620695	536
0	14346	1498.324223227177	537
0	14524	1518.934945755945	538
0	14565	1522.827812823326	539
0	14594	1525.445416631972	540
0	14596	1526.037519467695	541
0	14630	1530.299063694745	542
0	14637	1530.680624249264	543
0	14663	1533.601374636479	544
0	14751	1543.768643292494	545
0	14780	1546.38624710114	546
0	14822	1551.606784829995	547
0	14913	1562.091869953016	548
0	14918	1562.709165548708	549
0	14960	1567.327077570308	550
0	14987	1569.944681378954	551
0	15015	1572.914505965245	552
0	15066	1577.797492804892	553
0	15087	1580.415096613538	554
0	15108	1583.032700422184	555
0	15113	1583.319390618729	556
0	15133	1585.699138646395	557
0	15145	1587.004200008201	558
0	15148	1587.251170212113	559
0	15154	1588.267908039476	560
0	15168	1589.960682873445	561
0	15177	1590.421964330479	562
0	15181	1590.885511848122	563
0	15263	1600.365567526929	564
0	15299	1604.165830296945	565
0	15364	1611.299234467694	566
0	15396	1614.443946125936	567
0	15443	1619.679153743228	568
0	15452	1620.57476838474	569
0	15463	1621.673288662179	570
0	15470	1622.296757551874	571
0	15496	1625.335282409401	572
0	15514	1627.531965169166	573
0	15526	1628.775862373929	574
0	15542	1630.149568977812	575
0	15619	1639.616824483384	576
0	15675	1645.855191829688	577
0	15702	1648.663068766829	578
0	15726	1651.790958566849	579
0	15731	1652.211337314521	580
0	15741	1653.708003255626	581
0	15771	1656.724875763895	582
0	15806	1660.728177828526	583
0	15812	1661.560814681564	584
0	15856	1666.796022298856	585
0	15873	1668.088993702695	586
0	15885	1669.413626107502	587
0	15959	1677.26643753344	588
0	15964	1677.700936680672	589
0	15981	1679.884041342086	590
0	16012	1682.501645150732	591
0	16048	1687.221964729994	592
0	16134	1696.742992779316	593
0	16180	1701.222114233779	594
0	16198	1703.4424756199	595
0	16222	1705.483658460829	596
0	16273	1711.295287045838	597
0	16279	1712.124950715545	598
0	16313	1716.386494942595	599
0	16376	1723.489068654345	600
0	16389	1724.383306089068	601
0	16391	1724.676061945328	602
0	16397	1725.306076927282	603
0	16462	1732.236117515006	604
0	16467	1732.386096069349	605
0	16486	1734.853721323652	606
0	16547	1740.87275158499	607
0	16553	1742.70653274959	608
0	16572	1744.348133025926	609
0	16652	1753.319878243695	610
0	16675	1755.79455179282	611
0	16704	1758.629675099909	612
0	16720	1760.422451955445	613
0	16729	1761.029759410112	614
0	16753	1763.647363218758	615
0	16831	1772.911217173892	616
0	16890	1779.352986070634	617
0	16920	1782.432245223214	618
0	16985	1789.823401305218	619
0	16999	1791.673776287145	620
0	17014	1792.441005113864	621
0	17045	1796.396601971229	622
0	17049	1796.713787297197	623
1	0	0	0
1	199	7.235207617292	0
1	287	14.366634304877	1
1	291	14.609833607295	0
1	298	14.813485656985	1
1	304	15.08801904323	0
1	320	16.234000399335	1
1	324	16.281542073983	0
1	342	17.654515141685	1
1	347	17.705622851876	0
1	366	19.075029884035	1
1	384	20.06132916777	0
1	389	20.357283375295	1
1	394	20.495544626385	0
1	417	21.74126029488	1
1	424	21.916059368735	0
1	428	22.219445730815	1
1	438	22.940830469168	0
1	444	23.336574111085	1
1	447	23.412968761568	0
1	467	24.757088853435	1
1	468	24.837049539461	0
1	491	26.177603595785	1
1	503	27.192755855355	0
1	508	27.454653348107	1
1	513	27.62697131397	0
1	521	28.173482786229	1
1	528	28.455628195126	0
1	536	29.04748605632	1
1	538	29.276262487829	0
1	553	30.072257156753	1
1	559	30.439147822835	0
1	561	30.544395449153	1
1	564	30.563084147966	0
1	585	31.859662565185	1
1	588	31.968476227046	0
1	600	32.93399681089	1
1	604	33.280177307535	0
1	619	34.32418254294	1
1	628	34.758398001555	0
1	643	35.587054882711	1
1	645	35.67757006313	0
1	654	36.121206792235	1
1	664	36.407689175414	0
1	676	37.57057451042	1
1	677	37.694510835551	0
1	680	37.925068582691	1
1	702	38.962236276935	0
1	704	39.099902914631	1
1	708	39.39420992724	0
1	727	40.41160399512	1
1	731	40.640380426629	0
1	748	41.88982468914	1
1	751	42.089748144814	0
1	763	42.808996750715	1
1	768	43.160276199983	0
1	772	43.223780503985	1
1	776	43.539115862999	0
1	794	44.644295246335	1
1	796	44.825937523136	0
1	814	46.09366296452	1
1	824	46.499264746982	0
1	825	46.525636614825	1
1	834	46.819943627434	0
1	836	47.351766108065	1
1	842	47.485324731035	0
1	844	47.771807114214	1
1	853	47.972138089828	0
1	857	48.395483817275	1
1	868	48.905839473385	0
1	875	49.221174832399	1
1	888	50.291702887568	0
1	892	50.326354215735	1
1	903	50.670542550584	0
1	906	51.013087625921	1
1	915	51.734472364274	0
1	916	51.746868958085	1
1	919	51.75876613163	0
1	921	51.957364210721	1
1	923	51.976052909534	0
1	941	53.167383700435	1
1	950	53.630691434567	0
1	952	53.951370315019	1
1	956	54.35207617292	0
1	963	54.61675141862	1
1	975	55.103564777413	0
1	987	56.03726616097	1
1	988	56.248295243213	0
1	1003	57.423129575153	1
1	1004	57.428927927485	0
1	1008	57.801969238169	1
1	1017	58.296192472435	0
1	1026	58.865899051859	1
1	1028	58.890192819215	0
1	1032	59.107479597119	1
1	1053	60.269957412185	0
1	1057	60.762118122152	1
1	1066	61.483502860505	0
1	1069	61.497080958856	1
1	1074	61.690472154535	0
1	1087	62.234991464998	1
1	1095	63.110986896885	0
1	1099	63.379721930798	1
1	1116	64.153359794058	0
1	1121	64.531501639235	1
1	1124	64.56035461507	0
1	1134	65.42761916002	1
1	1143	65.952016381585	0
1	1144	66.0216195068	1
1	1166	67.40138409977	0
1	1178	68.61492954809	1
1	1186	68.82189884212	0
1	1191	69.336314286443	1
1	1193	69.366010632643	0
1	1208	70.24241358447	1
1	1221	71.284786481643	0
1	1231	71.634075350985	1
1	1232	71.691781302655	0
1	1253	73.08344306917	1
1	1261	73.407710369915	0
1	1271	74.532810787355	1
1	1290	75.292906642088	0
1	1299	75.953325529705	1
1	1305	76.497437320228	0
1	1316	77.316134320385	1
1	1331	77.910510450734	0
1	1338	78.416213169228	1
1	1346	78.736649062735	0
1	1347	78.82320799024	1
1	1352	78.994278470079	0
1	1364	80.157163805085	1
1	1376	80.52811425938	0
1	1377	80.5391370575	1
1	1394	81.577678547435	0
1	1407	82.424333329673	1
1	1408	82.648595142075	0
1	1419	82.998193289785	1
1	1432	83.628864007813	0
1	1441	84.418708032135	1
1	1448	85.041937138319	0
1	1464	85.86807575032	1
1	1465	86.125705157664	0
1	1476	87.259737516835	1
1	1480	87.659540946965	0
1	1505	88.70910523502	1
1	1508	89.128682291514	0
1	1509	89.78002182966	1
1	1514	90.100767001535	0
1	1517	90.760290695398	1
1	1522	90.998529493964	0
1	1537	91.521281743885	1
1	1540	92.173363825904	0
1	1547	92.894748564257	1
1	1551	92.941796486235	0
1	1556	93.257131845249	1
1	1574	94.362311228585	0
1	1575	94.79096763455	1
1	1590	96.260108979099	0
1	1607	97.23219368912	1
1	1615	98.129956181549	0
1	1627	99.304790513489	1
1	1642	100.07322317382	0
1	1654	101.49373791617	1
1	1664	101.970794517881	0
1	1678	103.391535666684	1
1	1685	104.086548537194	0
1	1700	105.261382869134	1
1	1711	105.876368762195	0
1	1728	107.204649861405	1
1	1741	108.388894737013	0
1	1747	109.102221205466	1
1	1753	109.321756154486	0
1	1776	111.217975224779	1
1	1789	111.939359963132	0
1	1800	113.00779544978	1
1	1803	113.188966358661	0
1	1830	115.520321424598	1
1	1837	115.804891072236	0
1	1847	116.453182842071	1
1	1864	117.495246460876	0
1	1878	119.070786650717	1
1	1895	120.320393046246	0
1	1926	122.936317759821	1
1	1941	124.626673148461	0
1	1968	127.451819733831	1
1	2014	131.758099836046	0
1	2077	138.889526523631	1
1	2101	140.733001858238	0
1	2173	147.864428545823	1
1	2238	153.821020901468	0
1	2300	160.952447589053	1
1	2317	162.31519008831	0
1	2385	169.446616775895	1
1	2389	169.526643753344	0
1	2445	176.658070440929	1
1	2453	177.379455179282	0
1	2524	184.510881866867	1
1	2528	185.23226660522	0
1	2597	192.363693292805	1
1	2601	192.42056098644	0
1	2665	199.551987674025	1
1	2676	200.937889457096	0
1	2745	208.069316144681	1
1	2764	210.285580636931	0
1	2823	217.417007324516	1
1	2826	217.541188889419	0
1	2887	224.672615577004	1
1	2896	225.307296932129	0
1	2966	232.438723619714	1
1	2984	234.966738969494	0
1	3045	242.098165657079	1
1	3109	248.054758012724	0
1	3172	255.186184700309	1
1	3180	255.907569438662	0
1	3234	263.038996126247	1
1	3237	263.199913518545	0
1	3301	270.33134020613	1
1	3317	271.613192290538	0
1	3381	278.744618978123	1
1	3396	280.246090426745	0
1	3459	287.37751711433	1
1	3466	287.63084147966	0
1	3526	294.762268167245	1
1	3530	295.171626568352	0
1	3593	302.303053255937	1
1	3615	304.394841046695	0
1	3670	311.52626773428	1
1	3688	312.864615021457	0
1	3745	319.996041709042	1
1	3756	320.481784669579	0
1	3823	327.613211357164	1
1	3842	329.20047608075	0
1	3900	336.331902768335	1
1	3907	337.053287506688	0
1	3969	344.184714194273	1
1	4045	352.758910358564	0
1	4106	359.890337046149	1
1	4114	360.611721784502	0
1	4171	367.743148472087	1
1	4209	371.082137019086	0
1	4271	378.213563706671	1
1	4280	378.934948445024	0
1	4344	386.066375132609	1
1	4358	387.601635997541	0
1	4422	394.733062685126	1
1	4430	395.769066014129	0
1	4501	402.900492701714	1
1	4519	405.110986531484	0
1	4577	412.242413219069	1
1	4614	415.581401766068	0
1	4675	422.712828453653	1
1	4682	423.434213192006	0
1	4747	430.565639879591	1
1	4788	435.206776244151	0
1	4853	442.338202931736	1
1	4874	444.375043661174	0
1	4934	451.506470348759	1
1	4949	453.235925231861	0
1	5015	460.367351919446	1
1	5021	460.698950743024	0
1	5079	467.830377430609	1
1	5089	468.215317873979	0
1	5151	475.346744561564	1
1	5155	475.786289364926	0
1	5221	482.917716052511	1
1	5224	483.379698582795	0
1	5286	490.51112527038	1
1	5308	492.332944540083	0
1	5371	499.464371227668	1
1	5415	504.579931260032	0
1	5474	511.711357947617	1
1	5493	512.43274268597	0
1	5551	519.564169373555	1
1	5564	520.896028688049	0
1	5621	528.027455375634	1
1	5625	528.138365537846	0
1	5686	535.269792225431	1
1	5693	535.991176963784	0
1	5753	543.122603651369	1
1	5761	543.843988389722	0
1	5830	550.975415077307	1
1	5837	551.69679981566	0
1	5900	558.828226503245	1
1	5911	559.549611241598	0
1	5973	566.681037929183	1
1	5976	567.190068381445	0
1	6043	574.32149506903	1
1	6058	575.713156835545	0
1	6124	582.84458352313	1
1	6134	583.108045519412	0
1	6187	590.239472206997	1
1	6196	590.96085694535	0
1	6260	598.092283632935	1
1	6273	598.813668371288	0
1	6332	605.945095058873	1
1	6339	606.585281131947	0
1	6398	613.716707819532	1
1	6416	615.487569621345	0
1	6486	622.61899630893	1
1	6506	624.989706457748	0
1	6574	632.121133145333	1
1	6584	632.842517883686	0
1	6650	639.973944571271	1
1	6655	640.695329309624	0
1	6720	647.826755997209	1
1	6728	648.548140735562	0
1	6794	655.679567423147	1
1	6829	659.018555970146	0
1	6885	666.149982657731	1
1	6895	666.871367396084	0
1	6955	674.002794083669	1
1	6962	674.189955514729	0
1	7023	681.321382202314	1
1	7036	682.57699024796	0
1	7099	689.708416935545	1
1	7109	690.429801673898	0
1	7167	697.561228361483	1
1	7177	698.266878990799	0
1	7230	705.398305678384	1
1	7242	706.400513131745	0
1	7306	713.53193981933	1
1	7333	716.07710369915	0
1	7394	723.208530386735	1
1	7404	724.458651186296	0
1	7469	731.590077873881	1
1	7472	731.969778494045	0
1	7534	739.10120518163	1
1	7549	740.492866948145	0
1	7618	747.62429363573	1
1	7654	751.370298246184	0
1	7713	758.501724933769	1
1	7721	758.921729921099	0
1	7786	766.053156608684	1
1	7797	766.340312124632	0
1	7859	773.471738812217	1
1	7870	774.19312355057	0
1	7926	781.324550238155	1
1	7939	782.045934976508	0
1	8001	789.177361664093	1
1	8006	789.898746402446	0
1	8075	797.030173090031	1
1	8090	798.733971384495	0
1	8152	805.86539807208	1
1	8162	806.526870167709	0
1	8224	813.658296855294	1
1	8240	815.653384713229	0
1	8305	822.784811400814	1
1	8319	823.927595914844	0
1	8380	831.059022602429	1
1	8416	834.398011149428	0
1	8481	841.529437837013	1
1	8485	842.250822575366	0
1	8546	849.382249262951	1
1	8556	850.103634001304	0
1	8610	857.235060688889	1
1	8624	858.395590563195	0
1	8679	865.52701725078	1
1	8706	868.413552488302	0
1	8773	875.544979175887	1
1	8780	876.279672087764	0
1	8844	883.411098775349	1
1	8877	886.750087322348	0
1	8940	893.881514009933	1
1	8947	894.602898748286	0
1	9013	901.734325435871	1
1	9018	901.737150660929	0
1	9077	908.868577348514	1
1	9088	910.308521600162	0
1	9158	917.439948287747	1
1	9185	920.778936834746	0
1	9248	927.910363522331	1
1	9258	928.631748260684	0
1	9314	935.763174948269	1
1	9360	941.246727076529	0
1	9425	948.378153764114	1
1	9429	949.342290907539	0
1	9488	956.473717595124	1
1	9500	957.42539015579	0
1	9564	964.556816843375	1
1	9567	964.934196239445	0
1	9636	972.06562292703	1
1	9642	972.498051408229	0
1	9702	979.629478095814	1
1	9719	981.980373147645	0
1	9778	989.11179983523	1
1	9802	991.454239668188	0
1	9865	998.585666355773	1
1	9873	999.307051094126	0
1	9937	1006.438477781711	1
1	9945	1007.159862520064	0
1	10005	1014.291289207649	1
1	10018	1015.012673946002	0
1	10072	1022.144100633587	1
1	10087	1022.86548537194	0
1	10137	1029.996912059525	1
1	10144	1030.271029326776	0
1	10211	1037.402456014361	1
1	10219	1038.571108223816	0
1	10290	1045.702534911401	1
1	10317	1049.0415234584	0
1	10383	1056.172950145985	1
1	10389	1056.894334884338	0
1	10452	1064.025761571923	1
1	10458	1064.400980172664	0
1	10517	1071.532406860249	1
1	10530	1072.599957736214	0
1	10591	1079.731384423799	1
1	10660	1086.760314595984	0
1	10721	1093.891741283569	1
1	10742	1096.158392014028	0
1	10802	1103.289818701613	1
1	10863	1109.826699959145	0
1	10923	1116.95812664673	1
1	10935	1117.300200458003	0
1	10986	1124.431627145588	1
1	10993	1124.952033909134	0
1	11057	1132.083460596719	1
1	11068	1132.804845335072	0
1	11132	1139.936272022657	1
1	11136	1140.65765676101	0
1	11195	1147.789083448595	1
1	11206	1148.510468186948	0
1	11278	1155.641894874533	1
1	11286	1156.363279612886	0
1	11343	1163.494706300471	1
1	11368	1165.688056367829	0
1	11432	1172.819483055414	1
1	11439	1173.086450066606	0
1	11501	1180.217876754191	1
1	11520	1182.539317699346	0
1	11578	1189.670744386931	1
1	11591	1190.392129125284	0
1	11646	1197.523555812869	1
1	11664	1198.244940551222	0
1	11713	1205.376367238807	1
1	11721	1206.09775197716	0
1	11784	1213.229178664745	1
1	11792	1213.950563403098	0
1	11854	1221.081990090683	1
1	11858	1221.803374829036	0
1	11912	1228.934801516621	1
1	11925	1229.656186254974	0
1	11990	1236.787612942559	1
1	12000	1237.685821953394	0
1	12063	1244.817248640979	1
1	12071	1245.36180910685	0
1	12135	1252.493235794435	1
1	12140	1253.214620532788	0
1	12206	1260.346047220373	1
1	12212	1260.862544105279	0
1	12271	1267.993970792864	1
1	12281	1268.296730559826	0
1	12342	1275.428157247411	1
1	12357	1276.773054810602	0
1	12412	1283.904481498187	1
1	12422	1284.62586623654	0
1	12479	1291.757292924125	1
1	12496	1292.478677662478	0
1	12555	1299.610104350063	1
1	12584	1302.949092897062	0
1	12649	1310.080519584647	1
1	12672	1312.960308115195	0
1	12735	1320.09173480278	1
1	12753	1321.272319557584	0
1	12816	1328.403746245169	1
1	12823	1329.047251738079	0
1	12889	1336.178678425664	1
1	12896	1336.97794240946	0
1	12960	1344.109369097045	1
1	12972	1344.672913903929	0
1	13032	1351.804340591514	1
1	13038	1352.152200233102	0
1	13103	1359.283626920687	1
1	13143	1363.370372073882	0
1	13202	1370.501798761467	1
1	13209	1371.006791921858	0
1	13270	1378.138218609443	1
1	13288	1378.859603347796	0
1	13340	1385.991030035381	1
1	13361	1387.309581176351	0
1	13416	1394.441007863936	1
1	13420	1394.565226199672	0
1	13482	1401.696652887257	1
1	13517	1405.380830128294	0
1	13576	1412.512256815879	1
1	13586	1412.669894180507	0
1	13642	1419.801320868092	1
1	13646	1420.633179348978	0
1	13715	1427.764606036563	1
1	13725	1428.59407571207	0
1	13788	1435.725502399655	1
1	13795	1436.446887138008	0
1	13853	1443.578313825593	1
1	13863	1444.299698563946	0
1	13918	1451.431125251531	1
1	13925	1452.031786344351	0
1	13993	1459.163213031936	1
1	14005	1460.005321415822	0
1	14058	1467.136748103407	1
1	14061	1467.796415031345	0
1	14131	1474.92784171893	1
1	14159	1477.75934764491	0
1	14224	1484.890774332495	1
1	14237	1486.181359502282	0
1	14298	1493.312786189867	1
1	14305	1494.03417092822	0
1	14367	1501.165597615805	1
1	14516	1517.592605206034	0
1	14575	1524.724031893619	1
1	14585	1524.91688972283	0
1	14647	1532.048316410415	1
1	14658	1533.29822805791	0
1	14719	1540.429654745495	1
1	14734	1541.151039483848	0
1	14789	1548.282466171433	1
1	14801	1549.003850909786	0
1	14864	1556.135277597371	1
1	14881	1558.688086064147	0
1	14943	1565.819512751732	1
1	14953	1566.273213710529	0
1	15029	1573.404640398114	1
1	15056	1577.176050192295	0
1	15121	1584.30747687988	1
1	15131	1585.65030423083	0
1	15194	1592.781730918415	1
1	15251	1599.904286069895	0
1	15324	1607.03571275748	1
1	15352	1609.847889266345	0
1	15414	1616.97931595393	1
1	15418	1617.061549934582	0
1	15477	1624.192976622167	1
1	15491	1624.91436136052	0
1	15554	1632.045788048105	1
1	15564	1632.767172786458	0
1	15626	1639.898599474043	1
1	15637	1640.993165473741	0
1	15690	1648.124592161326	1
1	15700	1648.472795638334	0
1	15761	1655.604222325919	1
1	15766	1656.325607064272	0
1	15827	1663.457033751857	1
1	15836	1664.17841849021	0
1	15904	1671.309845177795	1
1	15929	1673.771052672095	0
1	15988	1680.90247935968	1
1	16006	1682.461450705333	0
1	16070	1689.592877392918	1
1	16101	1692.972060385316	0
1	16170	1700.103487072901	1
1	16175	1700.824871811254	0
1	16236	1707.956298498839	1
1	16257	1709.745202687879	0
1	16324	1716.876629375464	1
1	16340	1719.148098471776	0
1	16404	1726.279525159361	1
1	16420	1727.750612881395	0
1	16487	1734.88203956898	1
1	16531	1740.088928940944	0
1	16596	1747.220355628529	1
1	16615	1749.108647050587	0
1	16676	1756.240073738172	1
1	16701	1758.412155601466	0
1	16765	1765.543582289051	1
1	16785	1767.86723431776	0
1	16850	1774.998661005345	1
1	16862	1776.735382261988	0
1	16930	1783.866808949573	1
1	16965	1787.205797496572	0
1	17024	1794.337224184157	1
1	17035	1795.05860892251	0
2	0	0	0
2	161	2	1
2	165	3.42051474235	2
2	177	4.794916802915	3
2	180	4.8410294847	4
2	189	6.26154422705	5
2	205	7.58983360583	6
2	208	7.6820589694	7
2	227	9.10257371175	8
2	239	10.384750408745	9
2	272	13.17966721166	10
2	310	15.589356472676	11
2	321	16.234000399335	12
2	365	19.0461769082	13
2	393	20.46669165055	14
2	423	21.8872063929	15
2	463	24.35933442332	16
2	494	26.295034459493	17
2	502	27.154251226235	18
2	512	27.5692653623	19
2	584	31.83080958935	20
2	603	33.2513243317	21
2	627	34.67183907405	22
2	655	36.121206792235	23
2	671	37.092827552601	24
2	674	37.51286855875	25
2	737	41.12883524081	26
2	747	41.7744127858	27
2	760	42.491724099155	28
2	765	42.814937265962	29
2	771	43.19492752815	30
2	867	48.87698649755	31
2	917	51.746868958085	32
2	940	53.1385307246	33
2	944	53.289517192263	34
2	964	54.61675141862	35
2	974	55.103419255385	36
2	983	55.9795602093	37
2	986	55.98896546554	38
2	1012	57.8983360583	39
2	1022	58.688413738817	40
2	1047	60.0769272588	41
2	1052	60.24110443635	42
2	1056	60.693252861215	43
2	1094	63.08213392105	44
2	1102	63.48816966413	45
2	1122	64.531501639235	46
2	1158	66.786758558648	47
2	1185	68.76419289045	48
2	1230	71.60522237515	49
2	1242	72.185655105202	50
2	1298	75.8667666022	51
2	1300	75.953325529705	52
2	1319	77.462753678705	53
2	1339	78.416213169228	54
2	1349	78.956899417573	55
2	1363	80.12831082925	56
2	1368	80.25767048162	57
2	1371	80.283999925033	58
2	1386	81.279533325211	59
2	1415	82.96934031395	60
2	1418	82.98344819831	61
2	1422	83.052587284535	62
2	1430	83.306661365117	63
2	1440	84.3898550563	64
2	1460	85.81036979865	65
2	1463	85.84750408745	66
2	1474	87.230884541	67
2	1496	88.382344744864	68
2	1499	88.642420890365	69
2	1502	88.65139928335	70
2	1533	91.43733769328	71
2	1536	91.49242876805	72
2	1538	91.521281743885	73
2	1550	92.9129435104	74
2	1570	94.232254496195	75
2	1583	95.7539729951	76
2	1595	96.480689564695	77
2	1602	97.17448773745	78
2	1626	99.180137837972	79
2	1636	99.822088102025	80
2	1640	100.01551722215	81
2	1648	101.4360319645	82
2	1674	102.919913309223	83
2	1688	104.2770614492	84
2	1692	104.579034384526	85
2	1704	105.411921707855	86
2	1727	107.1180909339	87
2	1729	107.204649861405	88
2	1732	107.278482657803	89
2	1739	108.20683851077	90
2	1777	111.217975224779	91
2	1801	113.00779544978	92
2	1809	113.428655965766	93
2	1818	114.22066464565	94
2	1828	115.376827477634	95
2	1834	115.641179388	96
2	1852	116.591588919515	97
2	1874	118.4822088727	98
2	1883	119.38650572243	99
2	1899	120.775724024188	100
2	1907	121.3232383574	101
2	1913	122.181422525345	102
2	1925	122.74375309975	103
2	1939	124.1642678421	104
2	1944	124.97633932826	105
2	1967	127.0052973268	106
2	1982	128.42581206915	107
2	1986	128.874068844019	108
2	2006	130.56617293409	109
2	2010	131.26684155385	110
2	2013	131.573517117296	111
2	2020	132.6873562962	112
2	2040	134.272965390573	113
2	2051	135.5283857809	114
2	2064	136.97241366385	115
2	2076	138.3694152656	116
2	2088	139.671861937127	117
2	2091	139.78993000795	118
2	2107	141.74584014575	119
2	2114	142.468303791617	120
2	2149	145.070758483681	121
2	2155	145.47198897735	122
2	2164	146.8925037197	123
2	2181	148.31301846205	124
2	2194	149.7335332044	125
2	2203	150.469655030235	126
2	2222	152.5745626891	127
2	2226	152.92550735741	128
2	2234	153.78671375781	129
2	2241	153.99507743145	130
2	2259	155.868551576789	131
2	2272	156.83610691615	132
2	2278	158.2566216585	133
2	2283	158.51534096324	134
2	2286	158.567999850066	135
2	2309	161.267448123343	136
2	2321	162.51816588555	137
2	2326	163.058715021523	138
2	2336	163.9386806279	139
2	2358	166.666344669897	140
2	2361	166.7797101126	141
2	2364	166.900091371985	142
2	2371	168.20022485495	143
2	2392	169.6207395973	144
2	2399	171.04125433965	145
2	2403	172.065241216451	146
2	2410	172.461769082	147
2	2413	172.489924977815	148
2	2423	173.88228382435	149
2	2433	174.764689489728	150
2	2436	175.28484178073	151
2	2439	175.3027985667	152
2	2456	177.464137763005	153
2	2459	178.079758583645	154
2	2465	178.1438280514	155
2	2474	179.56434279375	156
2	2496	180.9848575361	157
2	2500	182.40537227845	158
2	2507	182.863034309559	159
2	2519	183.8258870208	160
2	2521	183.96455154883	161
2	2537	185.562482582836	162
2	2544	186.6669165055	163
2	2561	188.261930856113	164
2	2566	189.259425795305	165
2	2572	189.5079459902	166
2	2574	189.698544211911	167
2	2580	190.92846073255	168
2	2596	192.3489754749	169
2	2598	192.363693292805	170
2	2608	193.660827402667	171
2	2612	193.76949021725	172
2	2615	194.849259401135	173
2	2623	195.432536874992	174
2	2630	196.360275675944	175
2	2633	196.61051970195	176
2	2648	198.0310344443	177
2	2666	199.551987674025	178
2	2670	200.439093006965	179
2	2673	200.872063929	180
2	2678	201.166529538073	181
2	2684	201.759172222498	182
2	2690	202.29257867135	183
2	2708	204.458620495775	184
2	2713	205.13360815605	185
2	2725	206.5541228984	186
2	2744	207.97463764075	187
2	2746	208.069316144681	188
2	2755	208.82384341571	189
2	2759	209.3951523831	190
2	2762	209.857517042329	191
2	2769	211.051384274898	192
2	2779	211.618760218625	193
2	2785	212.2361818678	194
2	2788	212.556965315606	195
2	2791	213.65669661015	196
2	2808	215.256413588883	197
2	2816	216.49772609485	198
2	2822	217.208593824455	199
2	2832	217.95586186216	200
2	2840	219.33875557955	201
2	2876	222.798427430285	202
2	2880	223.354758408714	203
2	2883	223.6002998066	204
2	2888	224.672615577004	205
2	2891	224.833087192728	206
2	2894	225.02081454895	207
2	2916	226.4413292913	208
2	2922	227.86184403365	209
2	2925	228.388261036115	210
2	2928	228.753654955268	211
2	2942	229.836492853478	212
2	2948	230.70287351835	213
2	2951	231.18317783903	214
2	2957	231.453103228545	215
2	2960	232.1233882607	216
2	2975	233.978094641945	217
2	2978	234.152551501822	218
2	2996	236.38493248775	219
2	3004	236.851999775099	220
2	3020	239.22596197245	221
2	3023	239.551448048376	222
2	3044	242.06699145715	223
2	3084	245.157761853605	224
2	3093	247.038470842721	225
2	3098	247.649792868207	226
2	3101	247.74905042655	227
2	3126	250.349241141484	228
2	3133	250.59007991125	229
2	3139	250.747595459435	230
2	3143	252.0105946536	231
2	3145	252.246311803048	232
2	3159	253.43110939595	233
2	3162	253.54251226235	234
2	3171	254.8516241383	235
2	3173	255.186184700309	236
2	3177	255.748137688038	237
2	3188	256.337429065265	238
2	3192	257.692653623	239
2	3195	258.447585961315	240
2	3197	258.506456168883	241
2	3209	259.13234586818	242
2	3227	261.147034234592	243
2	3230	261.927262671095	244
2	3233	261.95419785005	245
2	3235	263.038996126247	246
2	3241	263.3747125924	247
2	3243	263.610429741848	248
2	3258	264.72217947401	249
2	3261	264.79522733475	250
2	3267	266.2157420771	251
2	3273	266.545930781146	252
2	3282	267.63625681945	253
2	3284	268.039050349674	254
2	3294	269.0567715618	255
2	3300	270.31201307984	256
2	3304	270.347371173546	257
2	3308	270.47728630415	258
2	3332	273.31831578885	259
2	3344	274.7388305312	260
2	3351	275.90184668567	261
2	3371	277.343723874254	262
2	3374	277.5798600159	263
2	3382	278.744618978123	264
2	3394	280.043172147531	265
2	3400	280.4208895006	266
2	3411	281.84140424295	267
2	3428	283.2619189853	268
2	3431	284.286597094415	269
2	3434	284.68243372765	270
2	3440	285.442068694085	271
2	3455	287.08151389733	272
2	3463	287.52346321235	273
2	3469	288.141516967362	274
2	3478	288.9439779547	275
2	3490	290.36449269705	276
2	3493	290.840965240639	277
2	3496	291.7850074394	278
2	3505	292.67134750316	279
2	3516	293.540413513916	280
2	3525	294.6260369241	281
2	3535	295.466264306075	282
2	3541	296.239861787193	283
2	3552	297.4670664088	284
2	3563	298.88758115115	285
2	3566	298.93931006047	286
2	3597	303.019210247596	287
2	3604	303.1491253782	288
2	3613	304.338206607024	289
2	3619	304.56964012055	290
2	3633	306.645931517735	291
2	3639	307.037654880301	292
2	3642	307.41066960525	293
2	3648	308.8311843476	294
2	3663	310.25169908995	295
2	3680	311.6722138323	296
2	3686	312.436551426855	297
2	3693	313.328445724098	298
2	3700	314.513243317	299
2	3709	315.135999700132	300
2	3712	315.93375805935	301
2	3735	317.835447973409	302
2	3749	320.1953022864	303
2	3772	321.61581702875	304
2	3778	323.0363317711	305
2	3784	323.234344519963	306
2	3787	323.415432335225	307
2	3809	325.93379279324	308
2	3812	326.21034913814	309
2	3817	327.083833827025	310
2	3820	327.29787599815	311
2	3839	329.005265941055	312
2	3848	330.13890548285	313
2	3854	331.332689339794	314
2	3857	331.5594202252	315
2	3870	332.97993496755	316
2	3873	334.032137613071	317
2	3879	334.4004497099	318
2	3890	334.595099546885	319
2	3901	336.331902768335	320
2	3904	336.731585886348	321
2	3910	337.2414791946	322
2	3913	337.3900163498	323
2	3915	338.474266580728	324
2	3934	340.0825086793	325
2	3937	340.184933152715	326
2	3946	341.50302342165	327
2	3949	342.130482432902	328
2	3963	342.97984995563	329
2	3965	343.159255313448	330
2	3970	344.184714194273	331
2	3973	344.34405290635	332
2	3979	344.829930706179	333
2	3985	345.7645676487	334
2	4002	347.529378979456	335
2	4008	348.6055971334	336
2	4019	350.02611187575	337
2	4025	350.228827252733	338
2	4027	350.261829025198	339
2	4039	351.4466266181	340
2	4048	352.86714136045	341
2	4051	352.92827552601	342
2	4060	354.2876561028	343
2	4071	355.627723799287	344
2	4074	355.70817084515	345
2	4079	356.954433970205	346
2	4082	357.1286855875	347
2	4099	358.54920032985	348
2	4111	359.9697150722	349
2	4117	361.026620345841	350
2	4130	362.8107445569	351
2	4139	363.726068619118	352
2	4148	364.23125929925	353
2	4158	365.6517740416	354
2	4164	366.425516892395	355
2	4167	367.07228878395	356
2	4175	368.009844867555	357
2	4200	369.91331826865	358
2	4206	370.92901798478	359
2	4212	371.333833011	360
2	4231	373.723934787695	361
2	4248	375.59537723805	362
2	4272	378.213563706671	363
2	4275	378.43640672275	364
2	4283	379.313768393525	365
2	4292	379.92275825878	366
2	4315	382.6979509498	367
2	4328	384.11846569215	368
2	4340	385.321654805334	369
2	4355	386.95949517685	370
2	4361	387.69851880227	371
2	4364	388.021103078611	372
2	4383	390.388287419746	373
2	4386	390.493435605185	374
2	4389	390.720551351888	375
2	4392	391.2210394039	376
2	4409	393.2883524081	377
2	4412	393.419999625165	378
2	4418	394.0620688886	379
2	4426	395.48258363095	380
2	4442	396.9030983733	381
2	4457	398.32361311565	382
2	4466	398.87818601393	383
2	4477	401.16464260035	384
2	4482	401.333443040182	385
2	4486	401.518344444996	386
2	4489	401.673102816845	387
2	4513	404.217792718273	388
2	4516	404.46801961976	389
2	4534	406.84670156975	390
2	4544	407.590265408989	391
2	4550	408.2672163121	392
2	4559	409.616689264827	393
2	4562	409.68773105445	394
2	4578	412.242413219069	395
2	4587	412.52876053915	396
2	4590	412.852770028505	397
2	4600	413.9492752815	398
2	4611	415.36979002385	399
2	4617	415.64768683142	400
2	4623	416.7903047662	401
2	4640	418.442603634335	402
2	4642	418.446536657998	403
2	4646	419.6313342509	404
2	4652	420.414482357935	405
2	4664	421.05184899325	406
2	4676	422.712828453653	407
2	4679	423.113930631212	408
2	4688	423.89287847795	409
2	4691	424.032437240165	410
2	4696	425.3133932203	411
2	4719	426.82735404308	412
2	4722	428.154422705	413
2	4728	428.512827177766	414
2	4734	429.57493744735	415
2	4755	431.212275451043	416
2	4767	432.41596693205	417
2	4770	432.41718764891	418
2	4773	433.8364816744	419
2	4779	433.91172372432	420
2	4803	436.611171997597	421
2	4817	438.09802590145	422
2	4834	439.5185406438	423
2	4843	440.801938057655	424
2	4846	440.93905538615	425
2	4852	442.010068544151	426
2	4857	442.3595701285	427
2	4870	444.178069262131	428
2	4877	444.709516817428	429
2	4885	445.2005996132	430
2	4888	446.391771663485	431
2	4933	450.8826585826	432
2	4935	451.506470348759	433
2	4944	452.30317332495	434
2	4962	454.77652207223	435
2	4971	455.14420280965	436
2	4983	456.564717552	437
2	5008	459.4057470367	438
2	5044	463.161272480975	439
2	5047	463.605654730367	440
2	5050	463.66729126375	441
2	5069	466.305103003644	442
2	5078	466.50832074845	443
2	5080	467.830377430609	444
2	5084	467.9288354908	445
2	5107	470.66418470288	446
2	5110	470.7698649755	447
2	5119	471.703999550198	448
2	5127	472.19037971785	449
2	5144	474.340939692635	450
2	5147	474.403447823475	451
2	5161	476.4519239449	452
2	5192	479.802344370029	453
2	5200	480.71346817195	454
2	5214	482.501792643306	455
2	5222	482.917716052511	456
2	5228	483.55449765665	457
2	5237	484.975012399	458
2	5243	485.201240916583	459
2	5245	485.210729548448	460
2	5263	487.8160418837	461
2	5266	487.90068918986	462
2	5293	490.6570713684	463
2	5299	491.110440510125	464
2	5311	493.299585736414	465
2	5317	493.4981008531	466
2	5319	493.600155355204	467
2	5330	494.91861559545	468
2	5336	495.999034009691	469
2	5339	496.3391303378	470
2	5364	499.1801598225	471
2	5372	499.464371227668	472
2	5379	500.60067456485	473
2	5398	502.0211893072	474
2	5401	502.290107721785	475
2	5404	503.44170404955	476
2	5421	505.0850245247	477
2	5423	505.097935941348	478
2	5429	506.28273353425	479
2	5441	506.796827102799	480
2	5447	507.7032482766	481
2	5459	509.496275376076	482
2	5465	510.5442777613	483
2	5468	510.67485813053	484
2	5479	511.96479250365	485
2	5485	512.195723649353	486
2	5505	514.89517192263	487
2	5517	516.2263367307	488
2	5528	517.594620195907	489
2	5531	517.64685147305	490
2	5550	519.0673662154	491
2	5552	519.564169373555	492
2	5558	520.294068469184	493
2	5561	520.48788095775	494
2	5567	521.85452534219	495
2	5580	522.993516742461	496
2	5583	523.32891044245	497
2	5589	524.649442145105	498
2	5610	526.16993992715	499
2	5615	527.44435894802	500
2	5618	527.5904546695	501
2	5620	528.00411133369	502
2	5628	528.392413289015	503
2	5648	530.4314841542	504
2	5654	531.091861562292	505
2	5663	533.03419255385	506
2	5666	533.2725136389	507
2	5687	535.269792225431	508
2	5690	535.829109356765	509
2	5696	536.1135431236	510
2	5701	536.490758108846	511
2	5721	538.9545726083	512
2	5724	539.190206382123	513
2	5726	539.472096659852	514
2	5732	540.37508735065	515
2	5752	541.8896546554	516
2	5758	543.21611683535	517
2	5766	544.148863780012	518
2	5776	544.6366315777	519
2	5799	547.008776568425	520
2	5804	547.288551201954	521
2	5807	547.4776610624	522
2	5810	548.89817580475	523
2	5829	550.3186905471	524
2	5831	550.975415077307	525
2	5840	551.73920528945	526
2	5846	552.598610174255	527
2	5849	552.687447748508	528
2	5867	554.58023477415	529
2	5870	555.386896021785	530
2	5873	555.39352697717	531
2	5879	556.0007495165	532
2	5890	558.086344295062	533
2	5893	558.188443780085	534
2	5898	558.430405853995	535
2	5905	558.8417790012	536
2	5914	560.26229374355	537
2	5925	561.6828084859	538
2	5969	566.184689114893	539
2	5974	566.681037929183	540
2	6011	570.20589694	541
2	6017	571.583585661447	542
2	6022	571.862128831798	543
2	6026	572.16302779466	544
2	6042	574.283033934724	545
2	6047	574.46744116705	546
2	6050	574.957944597575	547
2	6062	575.8879559094	548
2	6073	577.30847065175	549
2	6075	577.472461952639	550
2	6117	582.381378754555	551
2	6128	582.99052962115	552
2	6142	584.4110443635	553
2	6145	585.080827027832	554
2	6151	585.83155910585	555
2	6168	587.780275301109	556
2	6180	588.93252861215	557
2	6182	589.468887206609	558
2	6186	590.0931033329	559
2	6188	590.239472206997	560
2	6199	591.51361807525	561
2	6204	591.754004026622	562
2	6217	592.9341328176	563
2	6220	593.179171847663	564
2	6234	595.7751623023	565
2	6242	596.812023290662	566
2	6250	597.065761914046	567
2	6254	597.19567704465	568
2	6257	597.317279020895	569
2	6267	598.578068394217	570
2	6276	600.03670652935	571
2	6290	601.4572212717	572
2	6292	601.692938421148	573
2	6305	602.87773601405	574
2	6311	603.976964940771	575
2	6345	606.676413214048	576
2	6348	607.1392802411	577
2	6357	608.496946232555	578
2	6360	608.55979498345	579
2	6377	609.9803097258	580
2	6380	611.29186303547	581
2	6392	612.075309760602	582
2	6405	614.086779838385	583
2	6408	614.24185395285	584
2	6414	614.774758033879	585
2	6423	615.6623686952	586
2	6448	618.5033981799	587
2	6451	619.676613444215	588
2	6460	619.92391292225	589
2	6485	622.47153024713	590
2	6490	622.76494240695	591
2	6493	622.87310285371	592
2	6509	625.266447050045	593
2	6515	625.572551126987	594
2	6530	627.026486634	595
2	6544	628.44700137635	596
2	6550	629.8675161187	597
2	6562	630.856280655875	598
2	6565	630.971447673541	599
2	6571	631.28803086105	600
2	6578	632.7085456034	601
2	6589	633.65119745879	602
2	6592	633.670895946818	603
2	6597	634.12906034575	604
2	6615	636.446114261705	605
2	6617	636.949971932229	606
2	6620	636.97008983045	607
2	6628	638.3906045728	608
2	6646	639.81111931515	609
2	6658	641.2316340575	610
2	6664	641.769240766649	611
2	6682	644.0726635422	612
2	6688	644.468689039926	613
2	6702	645.49317828455	614
2	6713	647.168137313203	615
2	6725	648.33420776925	616
2	6737	649.7547225116	617
2	6740	649.86758558648	618
2	6762	652.567033859757	619
2	6765	652.5957519963	620
2	6779	654.01626673865	621
2	6790	655.436781481	622
2	6795	655.679567423147	623
2	6804	656.85729622335	624
2	6810	657.965930406311	625
2	6813	658.2778109657	626
2	6835	660.665378679588	627
2	6838	661.1188404504	628
2	6844	661.60036548794	629
2	6853	662.53935519275	630
2	6864	663.364826952865	631
2	6870	663.9598699351	632
2	6881	665.38038467745	633
2	6884	666.064275226142	634
2	6904	668.22141416215	635
2	6933	671.353927910715	636
2	6936	671.463171772696	637
2	6954	673.90347313155	638
2	6960	674.162620045973	639
2	6980	676.614587485646	640
2	6984	676.74450261625	641
2	6987	676.86206831925	642
2	6989	677.087920573796	643
2	6998	678.1650173586	644
2	7001	678.36986630543	645
2	7013	679.58553210095	646
2	7019	681.0060468433	647
2	7026	682.203770495181	648
2	7030	682.260964865804	649
2	7047	683.95969991126	650
2	7070	686.754616714175	651
2	7089	688.10862055505	652
2	7095	689.5291352974	653
2	7100	689.708416935545	654
2	7125	692.344450320005	655
2	7128	692.3701647821	656
2	7134	693.058757958912	657
2	7136	693.660764393846	658
2	7140	693.79067952445	659
2	7148	695.2111942668	660
2	7154	695.758206232189	661
2	7159	696.485312569164	662
2	7163	696.63170900915	663
2	7175	698.0522237515	664
2	7191	700.763338105596	665
2	7195	700.8932532362	666
2	7201	701.157102778743	667
2	7226	703.85655105202	668
2	7231	705.398305678384	669
2	7234	705.757883889201	670
2	7246	706.555999325297	671
2	7252	706.5753122056	672
2	7272	709.255447598574	673
2	7280	710.83685643265	674
2	7296	711.954895871851	675
2	7299	712.257371175	676
2	7310	713.67788591735	677
2	7319	714.703784743325	678
2	7326	715.334117809148	679
2	7336	716.51891540205	680
2	7345	717.353792418405	681
2	7348	717.49870154624	682
2	7351	717.9394301444	683
2	7367	720.053240691682	684
2	7370	720.293618349155	685
2	7373	720.7804596291	686
2	7384	722.20097437145	687
2	7401	723.6214891138	688
2	7410	725.04200385615	689
2	7439	728.151585511513	690
2	7444	728.693854541525	691
2	7447	729.3035480832	692
2	7465	730.85103378479	693
2	7470	731.590077873881	694
2	7482	733.550482058067	695
2	7485	733.56509231025	696
2	7497	734.569424766452	697
2	7504	734.9856070526	698
2	7516	736.249930331344	699
2	7533	738.949378604621	700
2	7570	742.08818076435	701
2	7576	742.652952772475	702
2	7582	743.5086955067	703
2	7602	745.44786957539	704
2	7608	746.3497249914	705
2	7614	747.047723424452	706
2	7622	747.77023973375	707
2	7635	749.1907544761	708
2	7641	749.747171697729	709
2	7652	751.03770318122	710
2	7687	755.146068244283	711
2	7692	756.086878069744	712
2	7696	756.29332818785	713
2	7703	757.36381785693	714
2	7706	757.7138429302	715
2	7714	758.501724933769	716
2	7727	759.13435767255	717
2	7730	759.422453589965	718
2	7742	760.5548724149	719
2	7748	761.97538715725	720
2	7753	763.097810520011	721
2	7758	763.265986768996	722
2	7762	763.3959018996	723
2	7785	765.943861337391	724
2	7787	766.053156608684	725
2	7791	766.2369313843	726
2	7803	767.80720399871	727
2	7847	771.9189903537	728
2	7858	773.39703760454	729
2	7867	774.042206157222	730
2	7873	774.7600198384	731
2	7881	776.18053458075	732
2	7884	776.191954407455	733
2	7902	778.891648934846	734
2	7906	778.98687121037	735
2	7909	779.02156406545	736
2	7918	779.441102703776	737
2	7921	780.4420788078	738
2	7930	781.781788013285	739
2	7936	781.86259355015	740
2	7942	782.140550977053	741
2	7951	783.2831082925	742
2	7962	784.70362303485	743
2	7965	784.83999925033	744
2	7972	786.935079037723	745
2	7988	787.54465251955	746
2	8015	790.238895796884	747
2	8023	791.8061967466	748
2	8040	793.22671148895	749
2	8060	795.637792343438	750
2	8063	795.75637202786	751
2	8070	796.303458123098	752
2	8076	797.030173090031	753
2	8079	797.488255716	754
2	8085	798.337240616715	755
2	8088	798.551288830775	756
2	8094	798.90877045835	757
2	8128	803.235759161578	758
2	8131	803.736137163269	759
2	8156	806.0113441701	760
2	8159	806.435585436546	761
2	8171	807.43185891245	762
2	8189	810.27288839715	763
2	8209	811.6934031395	764
2	8220	813.11391788185	765
2	8225	813.658296855294	766
2	8235	814.5344326242	767
2	8238	815.320789648265	768
2	8260	817.233378529654	769
2	8263	817.3754621089	770
2	8268	818.11570645118	771
2	8274	818.79597685125	772
2	8283	820.2164915936	773
2	8285	820.25867721035	774
2	8292	820.910623254095	775
2	8304	822.632275076208	776
2	8306	822.784811400814	777
2	8325	825.331723349485	778
2	8337	825.898550563	779
2	8343	826.500456859925	780
2	8357	828.031171622762	781
2	8362	828.7395800477	782
2	8371	830.16009479005	783
2	8381	831.059022602429	784
2	8384	831.5806095324	785
2	8396	832.090290465755	786
2	8398	832.25510246432	787
2	8402	833.00112427475	788
2	8428	835.84215375945	789
2	8431	836.129516442593	790
2	8437	837.2626685018	791
2	8466	840.1036979865	792
2	8480	841.528412989147	793
2	8482	841.529437837013	794
2	8494	843.269957677415	795
2	8499	844.227861262424	796
2	8502	844.36524221355	797
2	8520	846.06487448033	798
2	8523	846.927309535701	799
2	8529	847.20627169825	800
2	8535	848.6267864406	801
2	8538	848.859791283245	802
2	8547	849.382249262951	803
2	8550	849.626757808978	804
2	8553	850.04730118295	805
2	8561	851.297158562964	806
2	8565	851.4678159253	807
2	8568	851.65470808616	808
2	8580	852.88833066765	809
2	8595	855.025654355532	810
2	8609	857.1498748947	811
2	8611	857.235060688889	812
2	8619	857.725102628809	813
2	8628	858.57038963705	814
2	8639	860.039458494905	815
2	8642	860.424550902086	816
2	8647	860.575685792388	817
2	8650	861.41141912175	818
2	8658	862.8319338641	819
2	8661	862.83437529782	820
2	8675	864.25244860645	821
2	8692	865.82344744864	822
2	8700	867.09347809115	823
2	8709	868.42420890365	824
2	8715	868.5139928335	825
2	8729	869.93450757585	826
2	8738	871.219125706565	827
2	8741	871.222343995194	828
2	8744	871.3550223182	829
2	8750	872.77553706055	830
2	8770	874.1960518029	831
2	8777	875.61656654525	832
2	8783	876.621240541748	833
2	8786	876.808959312395	834
2	8789	877.0370812876	835
2	8805	878.45759602995	836
2	8814	879.320688815025	837
2	8820	879.8781107723	838
2	8834	882.020137088302	839
2	8837	882.398792918225	840
2	8843	882.719140257	841
2	8855	884.13965499935	842
2	8863	884.719585361579	843
2	8869	885.19370972114	844
2	8872	885.5601697417	845
2	8883	887.419033634856	846
2	8904	889.82171396875	847
2	8907	890.118481908133	848
2	8913	890.78354332697	849
2	8939	893.578460129885	850
2	8941	893.881514009933	851
2	8944	894.0832581958	852
2	8952	895.316045581928	853
2	8958	895.517378454687	854
2	8982	898.216826727964	855
2	8985	898.34480242285	856
2	8997	899.7653171652	857
2	9009	901.18583190755	858
2	9021	901.96321053863	859
2	9030	902.6063466499	860
2	9033	903.615723274518	861
2	9036	904.02686139225	862
2	9047	905.4473761346	863
2	9054	906.315171547795	864
2	9056	906.447627097036	865
2	9062	906.86789087695	866
2	9065	907.55304414446	867
2	9078	908.868577348514	868
2	9085	909.70892036165	869
2	9091	910.347960947375	870
2	9093	910.708443678909	871
2	9112	912.54994984635	872
2	9118	913.14287775029	873
2	9124	913.9704645887	874
2	9129	914.413516367626	875
2	9151	916.8114940734	876
2	9157	917.112964640903	877
2	9166	918.23200881575	878
2	9191	921.07303830045	879
2	9196	921.527628159035	880
2	9215	923.91406778515	881
2	9218	924.32254496195	882
2	9224	925.211309460734	883
2	9244	926.75509726985	884
2	9247	927.117461764865	885
2	9249	927.910363522331	886
2	9252	927.910757734011	887
2	9255	928.1756120122	888
2	9278	931.0166414969	889
2	9289	932.707295370695	890
2	9292	933.309654280565	891
2	9310	935.27818572395	892
2	9313	935.50221217361	893
2	9315	935.763174948269	894
2	9327	936.6987004663	895
2	9337	938.297128976525	896
2	9343	938.708550827119	897
2	9349	939.539729951	898
2	9355	940.96024469335	899
2	9358	941.09204577944	900
2	9381	943.80127417805	901
2	9384	943.886962582355	902
2	9407	946.64230366275	903
2	9410	946.68187938527	904
2	9413	946.80689564695	905
2	9419	948.0628184051	906
2	9438	949.506343920227	907
2	9448	951.221687166242	908
2	9455	952.205792193504	909
2	9461	952.32436263215	910
2	9481	954.905240466781	911
2	9487	955.16539211685	912
2	9494	956.821624008648	913
2	9518	959.4269363439	914
2	9532	960.304137013335	915
2	9538	960.656463399845	916
2	9552	963.003585286612	917
2	9555	963.45138020276	918
2	9561	963.68848057095	919
2	9565	964.556816843375	920
2	9571	965.1089953133	921
2	9589	966.52951005565	922
2	9595	967.950024798	923
2	9601	968.402481833166	924
2	9612	969.521546390927	925
2	9621	970.7910542827	926
2	9627	971.101930106443	927
2	9640	972.21156902505	928
2	9661	974.63104741442	929
2	9664	975.05259850975	930
2	9666	975.255539054008	931
2	9672	976.4731132521	932
2	9701	979.3141427368	933
2	9706	980.22088102025	934
2	9717	981.899723199551	935
2	9723	982.1551722215	936
2	9739	983.57568696385	937
2	9745	984.599171472828	938
2	9748	984.9962017062	939
2	9762	987.298619746105	940
2	9768	987.8372311909	941
2	9774	988.605631428995	942
2	9785	989.25774593325	943
2	9796	990.6782606756	944
2	9799	991.40054823191	945
2	9807	992.09877541795	946
2	9816	992.697516292659	947
2	9830	994.195465034825	948
2	9835	994.93980490265	949
2	9840	996.230404514396	950
2	9844	996.360319645	951
2	9858	997.78083438735	952
2	9864	998.096412839213	953
2	9870	999.2013491297	954
2	9879	999.785298640655	955
2	9887	1000.79586111249	956
2	9889	1000.857581021498	957
2	9907	1003.46289335675	958
2	9910	1003.495309385767	959
2	9912	1003.633607352116	960
2	9936	1006.30392284145	961
2	9948	1007.7244375838	962
2	9953	1007.960154733248	963
2	9962	1008.894205932321	964
2	9965	1009.14495232615	965
2	9973	1010.5654670685	966
2	9976	1010.964965852315	967
2	9992	1011.98598181085	968
2	9998	1013.4064965532	969
2	10004	1013.75988265523	970
2	10010	1014.293102478875	971
2	10020	1015.393487695575	972
2	10026	1016.2475260379	973
2	10029	1016.554799458145	974
2	10035	1016.992550752152	975
2	10041	1017.66804078025	976
2	10043	1017.915149426099	977
2	10054	1019.34971626106	978
2	10057	1019.691999025429	979
2	10063	1020.50907026495	980
2	10068	1021.127480358656	981
2	10071	1021.9295850073	982
2	10073	1022.144100633587	983
2	10076	1022.144633063975	984
2	10090	1023.35009974965	985
2	10093	1024.770614492	986
2	10096	1024.93954986689	987
2	10099	1025.090895571983	988
2	10112	1026.426846383798	989
2	10119	1027.6116439767	990
2	10125	1027.79034384526	991
2	10147	1030.4526734614	992
2	10161	1031.87318820375	993
2	10163	1032.595465684818	994
2	10175	1033.2937029461	995
2	10178	1033.324300275635	996
2	10187	1034.71421768845	997
2	10196	1035.888688665091	998
2	10205	1036.1347324308	999
2	10216	1037.55524717315	1000
2	10225	1038.588136938368	1001
2	10242	1040.39627665785	1002
2	10256	1041.8167914002	1003
2	10262	1043.23730614255	1004
2	10268	1043.987033484922	1005
2	10270	1044.06345101098	1006
2	10284	1044.6578208849	1007
2	10291	1045.702534911401	1008
2	10294	1046.07833562725	1009
2	10300	1046.686481758199	1010
2	10306	1047.4988503696	1011
2	10314	1048.91936511195	1012
2	10323	1049.385930031476	1013
2	10329	1050.093801093125	1014
2	10341	1051.76039459665	1015
2	10370	1054.60142408135	1016
2	10373	1054.78482657803	1017
2	10379	1055.683634698955	1018
2	10382	1056.0219388237	1019
2	10384	1056.172950145985	1020
2	10398	1057.484274851307	1021
2	10409	1058.8629683084	1022
2	10415	1060.183723124584	1023
2	10428	1061.7039977931	1024
2	10440	1062.883171397861	1025
2	10453	1064.025761571923	1026
2	10466	1064.780744427248	1027
2	10476	1066.863301910615	1028
2	10485	1067.3860567625	1029
2	10502	1068.80657150485	1030
2	10505	1069.65821871353	1031
2	10511	1070.2270862472	1032
2	10522	1071.64760098955	1033
2	10533	1073.0681157319	1034
2	10542	1073.680964490969	1035
2	10551	1074.48863047425	1036
2	10565	1076.380412764246	1037
2	10573	1077.32965995895	1038
2	10585	1078.7501747013	1039
2	10592	1079.731384423799	1040
2	10601	1080.17068944365	1041
2	10607	1080.83788592519	1042
2	10612	1081.591204186	1043
2	10615	1081.7793093108	1044
2	10635	1084.4322336707	1045
2	10638	1084.478757584077	1046
2	10653	1085.85274841305	1047
2	10666	1087.2732631554	1048
2	10675	1088.69377789775	1049
2	10678	1089.222636333935	1050
2	10705	1092.01755313685	1051
2	10714	1092.577102403908	1052
2	10717	1092.9553221248	1053
2	10722	1093.891741283569	1054
2	10726	1094.37583686715	1055
2	10736	1095.276550677185	1056
2	10753	1097.21686635185	1057
2	10756	1097.60738674268	1058
2	10764	1098.6373810942	1059
2	10773	1100.05789583655	1060
2	10779	1100.675447223739	1061
2	10789	1101.4784105789	1062
2	10801	1103.19722034851	1063
2	10803	1103.289818701613	1064
2	10806	1103.374895497016	1065
2	10812	1104.3194400636	1066
2	10829	1106.074343770293	1067
2	10838	1107.1604695483	1068
2	10840	1107.789687016308	1069
2	10847	1108.58098429065	1070
2	10853	1108.77379204357	1071
2	10856	1108.78705395434	1072
2	10873	1111.42201377535	1073
2	10876	1111.473240316847	1074
2	10879	1111.581970757255	1075
2	10884	1112.56864789609	1076
2	10895	1114.26304326005	1077
2	10910	1115.6835580024	1078
2	10919	1116.872136863401	1079
2	10930	1117.10407274475	1080
2	10933	1117.171804363085	1081
2	10943	1119.571585136678	1082
2	10952	1119.94510222945	1083
2	10955	1119.966721166	1084
2	10964	1121.3656169718	1085
2	10982	1124.018919100278	1086
2	10985	1124.2066464565	1087
2	10996	1124.970481683232	1088
2	11002	1125.55655477183	1089
2	11025	1128.351471574745	1090
2	11028	1128.46819068355	1091
2	11033	1129.8887054259	1092
2	11042	1130.369378229786	1093
2	11065	1132.7297349106	1094
2	11071	1133.068826503063	1095
2	11074	1133.941305180575	1096
2	11077	1134.15024965295	1097
2	11096	1135.5707643953	1098
2	11102	1136.73622198349	1099
2	11105	1136.99127913765	1100
2	11122	1138.467723049617	1101
2	11125	1139.531138786405	1102
2	11133	1139.936272022657	1103
2	11138	1141.122908234096	1104
2	11142	1141.167171322894	1105
2	11145	1141.2528233647	1106
2	11156	1142.67333810705	1107
2	11171	1144.0938528494	1108
2	11191	1146.566067869448	1109
2	11203	1148.35539707645	1110
2	11218	1149.265516142725	1111
2	11227	1149.7759118188	1112
2	11230	1150.710805998065	1113
2	11239	1151.19642656115	1114
2	11249	1152.6169413035	1115
2	11261	1154.03745604585	1116
2	11289	1156.87848553055	1117
2	11292	1157.363860962556	1118
2	11297	1158.2990002729	1119
2	11311	1159.71951501525	1120
2	11316	1160.063309235833	1121
2	11325	1161.1400297576	1122
2	11330	1161.778652481848	1123
2	11334	1161.890473209725	1124
2	11342	1162.76275750911	1125
2	11351	1163.9810592423	1126
2	11360	1164.68539001264	1127
2	11363	1165.40157398465	1128
2	11366	1165.462205782387	1129
2	11400	1169.6631182117	1130
2	11405	1170.211289598762	1131
2	11407	1170.251598215251	1132
2	11417	1171.08363295405	1133
2	11448	1173.92466243875	1134
2	11454	1175.3451771811	1135
2	11461	1175.945282261843	1136
2	11467	1176.259998875495	1137
2	11485	1178.1862066658	1138
2	11488	1178.659974027215	1139
2	11491	1178.959447148772	1140
2	11508	1181.0272361505	1141
2	11511	1181.45489083013	1142
2	11514	1181.658895422049	1143
2	11517	1182.44775089285	1144
2	11539	1184.249807633045	1145
2	11542	1184.358343695326	1146
2	11548	1185.28878037755	1147
2	11553	1186.818257109247	1148
2	11562	1187.057791968603	1149
2	11571	1188.12980986225	1150
2	11577	1189.5503246046	1151
2	11579	1189.670744386931	1152
2	11582	1189.75724024188	1153
2	11605	1192.3913540893	1154
2	11608	1192.456688515157	1155
2	11611	1192.63455804179	1156
2	11620	1193.81186883165	1157
2	11631	1195.232383574	1158
2	11640	1196.65289831635	1159
2	11647	1197.523555812869	1160
2	11650	1197.855585061711	1161
2	11652	1197.885685702478	1162
2	11658	1198.0734130587	1163
2	11661	1198.22439164762	1164
2	11675	1200.555033334988	1165
2	11681	1200.9144425434	1166
2	11690	1202.33495728575	1167
2	11704	1203.7554720281	1168
2	11707	1203.81422525345	1169
2	11735	1206.609142056365	1170
2	11746	1208.653378154819	1171
2	11755	1209.40405885928	1172
2	11758	1209.4375309975	1173
2	11778	1212.198975662195	1174
2	11781	1212.2785604822	1175
2	11795	1214.052274701373	1176
2	11806	1215.1195899669	1177
2	11815	1216.54010470925	1178
2	11821	1216.75172297465	1179
2	11827	1217.788809268025	1180
2	11830	1217.9606194516	1181
2	11842	1219.451171247927	1182
2	11847	1220.58372607094	1183
2	11853	1220.8016489363	1184
2	11855	1221.081990090683	1185
2	11861	1222.150619521204	1186
2	11864	1222.22216367865	1187
2	11875	1223.642678421	1188
2	11889	1225.06319316335	1189
2	11898	1226.4837079057	1190
2	11913	1228.934801516621	1191
2	11916	1228.968476479685	1192
2	11922	1229.3247373904	1193
2	11927	1229.662883331196	1194
2	11934	1230.248964341035	1195
2	11948	1232.1657668751	1196
2	11954	1232.948412614312	1197
2	11957	1233.58628161745	1198
2	11977	1235.0067963598	1199
2	12011	1239.26834058685	1200
2	12032	1240.6888553292	1201
2	12057	1243.74620570742	1202
2	12062	1244.753194218815	1203
2	12064	1244.817248640979	1204
2	12068	1244.95039955625	1205
2	12077	1245.737977297175	1206
2	12088	1246.445653980697	1207
2	12097	1248.53289410009	1208
2	12125	1251.844550527251	1209
2	12134	1252.052973268	1210
2	12143	1253.47348801035	1211
2	12145	1253.709205159798	1212
2	12157	1254.543998800528	1213
2	12160	1254.8940027527	1214
2	12166	1256.31451749505	1215
2	12174	1257.243447073805	1216
2	12186	1257.970749386848	1217
2	12196	1259.15554697975	1218
2	12205	1259.942895347082	1219
2	12207	1260.346047220373	1220
2	12210	1260.5760617221	1221
2	12228	1262.642343620359	1222
2	12231	1263.4170912068	1223
2	12268	1267.67863543385	1224
2	12287	1269.0991501762	1225
2	12310	1271.9401796609	1226
2	12316	1273.36069440325	1227
2	12322	1273.440136713467	1228
2	12351	1276.20172388795	1229
2	12354	1276.48206212924	1230
2	12376	1279.157150197301	1231
2	12379	1279.276978932155	1232
2	12388	1280.463268115	1233
2	12394	1281.538481533298	1234
2	12397	1281.88378285735	1235
2	12413	1283.904481498187	1236
2	12416	1284.237929806575	1237
2	12425	1284.72481234205	1238
2	12428	1284.866812537985	1239
2	12431	1286.1453270844	1240
2	12456	1288.9863565691	1241
2	12459	1289.636826353129	1242
2	12473	1290.456646143815	1243
2	12475	1290.625135523463	1244
2	12484	1291.8273860538	1245
2	12493	1292.336274626406	1246
2	12499	1293.24790079615	1247
2	12521	1296.046479749645	1248
2	12524	1296.08893028085	1249
2	12526	1296.31007967645	1250
2	12536	1297.5094450232	1251
2	12542	1297.73517117296	1252
2	12554	1298.92995976555	1253
2	12563	1300.3504745079	1254
2	12566	1300.434619446237	1255
2	12574	1301.636313355475	1256
2	12577	1301.77098925025	1257
2	12587	1303.134067719514	1258
2	12590	1303.1915039926	1259
2	12592	1303.545990905759	1260
2	12599	1304.43123015839	1261
2	12625	1307.827113512706	1262
2	12634	1308.532964266068	1263
2	12653	1310.29407770435	1264
2	12665	1311.7145924467	1265
2	12670	1312.815980567135	1266
2	12676	1313.13510718905	1267
2	12691	1314.5556219314	1268
2	12699	1315.846221543146	1269
2	12706	1315.97613667375	1270
2	12712	1316.631309085899	1271
2	12728	1318.81716615845	1272
2	12739	1320.2376809008	1273
2	12764	1322.588047004403	1274
2	12768	1323.0787103855	1275
2	12780	1324.49922512785	1276
2	12809	1327.34025461255	1277
2	12812	1327.429102179007	1278
2	12821	1328.7607693549	1279
2	12836	1330.18128409725	1280
2	12844	1331.6017988396	1281
2	12852	1332.109075053725	1282
2	12859	1332.38039818754	1283
2	12864	1332.827998725561	1284
2	12867	1333.02231358195	1285
2	12882	1335.175314990455	1286
2	12885	1335.527446998838	1287
2	12899	1337.283857809	1288
2	12910	1338.226895272115	1289
2	12913	1338.70437255135	1290
2	12927	1340.1248872937	1291
2	12930	1340.765148596285	1292
2	12945	1342.9659167784	1293
2	12951	1343.5600653992	1294
2	12954	1343.625791818669	1295
2	12961	1344.109369097045	1296
2	12963	1344.256516390146	1297
2	12982	1346.325240091946	1298
2	12985	1346.354982202115	1299
2	12991	1347.22746100545	1300
2	13028	1351.4890052325	1301
2	13036	1351.944815807945	1302
2	13049	1353.145237124298	1303
2	13064	1354.423584911777	1304
2	13067	1354.73973261086	1305
2	13085	1357.1710642019	1306
2	13099	1358.59157894425	1307
2	13107	1359.822481458331	1308
2	13113	1360.0120936866	1309
2	13127	1361.43260842895	1310
2	13130	1362.521929731608	1311
2	13133	1362.8531231713	1312
2	13138	1363.124483019605	1313
2	13156	1365.221378004885	1314
2	13162	1365.694152656	1315
2	13176	1367.11466739835	1316
2	13190	1368.5351821407	1317
2	13195	1369.636405227784	1318
2	13203	1370.501798761467	1319
2	13206	1370.620274551439	1320
2	13226	1372.79672636775	1321
2	13244	1374.2172411101	1322
2	13247	1374.304150231265	1323
2	13260	1376.635025469678	1324
2	13263	1377.0582705948	1325
2	13271	1378.138218609443	1326
2	13277	1378.47878533715	1327
2	13283	1378.71861937127	1328
2	13294	1379.8993000795	1329
2	13299	1381.31981482185	1330
2	13302	1381.418067644547	1331
2	13316	1382.7403295642	1332
2	13330	1384.16084430655	1333
2	13341	1385.991030035381	1334
2	13350	1386.816964191101	1335
2	13353	1387.00187379125	1336
2	13355	1387.232274698293	1337
2	13376	1389.516412464378	1338
2	13382	1389.84290327595	1339
2	13387	1391.073651048755	1340
2	13390	1391.2634180183	1341
2	13407	1392.68393276065	1342
2	13409	1393.837003458921	1343
2	13415	1394.104447503	1344
2	13423	1394.915309010932	1345
2	13437	1396.663484654585	1346
2	13449	1397.614757284209	1347
2	13452	1398.36599173005	1348
2	13466	1399.7865064724	1349
2	13478	1401.20702121475	1350
2	13503	1403.013653830763	1351
2	13506	1404.04805069945	1352
2	13512	1405.04823506333	1353
2	13534	1406.88908018415	1354
2	13543	1407.843151866245	1355
2	13549	1408.3095949265	1356
2	13552	1408.412550377317	1357
2	13566	1410.63806866916	1358
2	13569	1411.111998650594	1359
2	13577	1412.512256815879	1360
2	13584	1412.57113915355	1361
2	13601	1413.9916538959	1362
2	13604	1415.41216863825	1363
2	13613	1416.22790227499	1364
2	13616	1416.510895197148	1365
2	13618	1416.772974111245	1366
2	13621	1416.8326833806	1367
2	13638	1419.210343470425	1368
2	13652	1421.09422760765	1369
2	13670	1422.51474235	1370
2	13679	1423.93525709235	1371
2	13691	1424.612652683735	1372
2	13694	1425.3557718347	1373
2	13711	1427.308688290256	1374
2	13714	1427.40756948665	1375
2	13716	1427.764606036563	1376
2	13720	1428.1968013194	1377
2	13728	1429.61731606175	1378
2	13745	1430.202486289565	1379
2	13748	1431.0378308041	1380
2	13754	1432.45834554645	1381
2	13757	1432.70758483681	1382
2	13770	1433.974952100488	1383
2	13778	1435.29937503115	1384
2	13781	1435.407033110087	1385
2	13789	1435.725502399655	1386
2	13792	1435.792319895395	1387
2	13798	1436.7198897735	1388
2	13809	1438.58723669831	1389
2	13823	1440.805929656641	1390
2	13826	1440.98143400055	1391
2	13828	1441.217151149998	1392
2	13846	1442.4019487429	1393
2	13852	1443.505377929918	1394
2	13854	1443.578313825593	1395
2	13857	1443.82246348525	1396
2	13860	1444.17707030414	1397
2	13875	1446.204826203195	1398
2	13878	1446.66349296995	1399
2	13887	1446.971987107055	1400
2	13893	1448.0840077123	1401
2	13906	1449.50452245465	1402
2	13917	1450.925037197	1403
2	13952	1454.303171023026	1404
2	13957	1455.056666293446	1405
2	13961	1455.18658142405	1406
2	13972	1457.002619296303	1407
2	13981	1458.02761090875	1408
2	14000	1459.70206756958	1409
2	14011	1460.94657112163	1410
2	14017	1462.2891551358	1411
2	14048	1465.1301846205	1412
2	14054	1466.53640472746	1413
2	14057	1466.55069936285	1414
2	14059	1467.136748103407	1415
2	14065	1467.800412389411	1416
2	14071	1467.9712141052	1417
2	14073	1468.206931254648	1418
2	14085	1469.39172884755	1419
2	14094	1470.499860662688	1420
2	14106	1472.23275833225	1421
2	14124	1473.6532730746	1422
2	14130	1474.921155136205	1423
2	14144	1475.898757209242	1424
2	14152	1476.669612391573	1425
2	14162	1477.91481730165	1426
2	14174	1479.335332044	1427
2	14198	1482.1763615287	1428
2	14206	1483.30590554495	1429
2	14212	1483.59687627105	1430
2	14225	1484.890774332495	1431
2	14229	1485.0173910134	1432
2	14243	1486.69655030235	1433
2	14260	1488.89573915078	1434
2	14263	1489.27893524045	1435
2	14266	1489.395998575627	1436
2	14274	1490.6994499828	1437
2	14288	1492.095446848904	1438
2	14291	1492.11996472515	1439
2	14299	1493.312786189867	1440
2	14308	1494.48557275661	1441
2	14335	1497.280489559525	1442
2	14338	1497.494343395458	1443
2	14344	1497.80202369455	1444
2	14363	1500.193791668735	1445
2	14366	1500.64305317925	1446
2	14368	1501.165597615805	1447
2	14379	1502.0635679216	1448
2	14390	1502.893239942012	1449
2	14393	1503.48408266395	1450
2	14404	1504.9045974063	1451
2	14407	1505.592688215289	1452
2	14426	1507.745626891	1453
2	14432	1508.292136488566	1454
2	14441	1509.16614163335	1455
2	14455	1510.5866563757	1456
2	14458	1510.991584761843	1457
2	14464	1511.2550735741	1458
2	14467	1512.00717111805	1459
2	14498	1516.138800214496	1460
2	14505	1516.2687153451	1461
2	14531	1519.1097448298	1462
2	14542	1520.53025957215	1463
2	14562	1522.43474078576	1464
2	14567	1523.241373926246	1465
2	14574	1524.488826128228	1466
2	14580	1524.7918037992	1467
2	14582	1524.814752860178	1468
2	14603	1527.188274401505	1469
2	14609	1527.6328332839	1470
2	14612	1528.02457439159	1471
2	14640	1530.819491194505	1472
2	14643	1531.89437751095	1473
2	14648	1532.048316410415	1474
2	14652	1532.587170948059	1475
2	14661	1533.3148922533	1476
2	14670	1534.73540699565	1477
2	14678	1535.286619221336	1478
2	14684	1536.155921738	1479
2	14686	1536.254396090919	1480
2	14700	1537.986067494613	1481
2	14709	1538.9969512227	1482
2	14712	1539.20424160325	1483
2	14718	1540.41746596505	1484
2	14720	1540.429654745495	1485
2	14726	1540.68551576789	1486
2	14737	1541.8379807074	1487
2	14745	1543.25849544975	1488
2	14748	1543.384964041167	1489
2	14771	1546.084412314444	1490
2	14777	1546.09952493445	1491
2	14786	1547.588992011995	1492
2	14792	1548.654805362108	1493
2	14795	1548.783860587721	1494
2	14798	1548.94055441915	1495
2	14810	1550.3610691615	1496
2	14813	1550.38390881491	1497
2	14832	1553.178825617825	1498
2	14835	1553.2020986462	1499
2	14846	1554.182757134275	1500
2	14852	1554.62261338855	1501
2	14863	1556.0431281309	1502
2	14865	1556.135277597371	1503
2	14871	1556.882205407552	1504
2	14874	1557.46364287325	1505
2	14884	1558.768659223655	1506
2	14887	1558.8841576156	1507
2	14898	1560.30467235795	1508
2	14904	1561.56357602657	1509
2	14910	1561.7251871003	1510
2	14923	1563.312033281938	1511
2	14933	1564.566216585	1512
2	14942	1564.980550227383	1513
2	14944	1565.819512751732	1514
2	14948	1565.98673132735	1515
[...]
11	615	33.931183158292	1
11	618	34.162281218808	0
11	636	35.212435044826	1
11	658	36.308777636963	0
11	666	36.630631431569	1
11	685	38.333918437895	0
11	692	38.777127849724	1
11	695	38.872306191247	0
11	733	40.802268650656	1
11	743	41.340656404008	0
11	756	42.260626038639	1
11	778	43.809006616769	0
11	790	44.606298854328	1
11	803	45.191172372432	0
11	815	46.27735682953	1
11	821	46.392102256486	0
11	843	47.659522585193	1
11	850	47.890620645709	0
11	862	48.860452469247	1
11	874	49.187019059401	0
11	893	50.35897085847	1
11	900	50.590068918986	0
11	907	51.655369272162	1
11	936	53.058419131747	0
11	945	53.381632298554	1
11	977	55.526769344508	0
11	1013	57.995119557269	1
11	1044	59.76445465242	0
11	1084	62.232804865181	1
11	1107	63.823258430814	0
11	1108	63.856212224855	1
11	1137	65.598641005413	0
11	1151	66.291608643575	1
11	1173	68.066991218174	0
11	1182	68.751436679806	1
11	1196	69.486206831925	0
11	1211	70.535341430935	1
11	1238	71.954557044686	0
11	1247	72.810382590261	1
11	1266	74.422907257447	0
11	1311	76.891257470208	1
11	1354	79.010254832814	0
11	1390	81.478605045575	1
11	1405	82.379003387895	0
11	1445	84.847353600656	1
11	1565	93.781241291418	0
11	1587	96.249591504179	1
11	1599	97.02717129911	0
11	1631	99.495521511871	1
11	1641	100.020966961601	0
11	1661	101.946225485138	1
11	1666	102.489317174362	0
11	1693	104.957667387123	1
11	1761	109.97793093108	0
11	1791	112.446281143841	1
11	1807	113.4142108113	0
11	1811	113.470105526446	1
11	1814	113.7966721166	0
11	1838	115.882561024061	1
11	1846	116.265022329361	0
11	1875	118.733372542122	1
11	1880	119.148203474381	0
11	1894	120.100387009267	1
11	1896	120.544625963672	0
11	1910	121.616553687142	1
11	1927	123.012976176433	0
11	1936	123.99582353521	1
11	1949	125.481326389194	0
11	1976	127.949676601955	1
11	1983	128.642970783503	0
11	1996	130.239606343936	1
11	2007	131.111320996264	0
11	2031	133.579671209025	1
11	2042	134.826967793862	0
11	2068	137.295318006623	1
11	2085	139.652967885459	0
11	2108	142.12131809822	1
11	2112	142.371310210404	0
11	2144	144.839660423165	1
11	2161	146.755541597209	0
11	2188	149.22389180997	1
11	2195	149.804023964341	0
11	2207	151.017085824259	1
11	2219	152.272374177102	0
11	2249	154.740724389863	1
11	2253	155.637453516273	0
11	2260	155.895609323864	1
11	2274	158.105803729034	0
11	2299	160.574153941795	1
11	2303	160.960689020709	0
11	2328	163.42903923347	1
11	2330	163.778607978916	0
11	2349	165.020144779029	1
11	2353	166.246958191677	0
11	2354	166.435246609381	1
11	2355	166.573524781831	0
11	2380	168.715308404438	1
11	2381	169.041874994592	0
11	2396	170.75413744211	1
11	2400	171.510225207353	0
11	2407	172.163358387661	1
11	2424	173.978575420114	0
11	2443	176.446925632875	1
11	2444	176.488130105191	0
11	2471	178.956480317952	1
11	2485	180.163586036282	0
11	2486	180.69890909851	1
11	2497	181.298773972718	0
11	2504	182.631936249043	1
11	2513	183.669592189475	0
11	2514	183.767124185479	1
11	2538	186.137942402236	0
11	2562	188.606292614997	1
11	2563	188.932859205151	0
11	2590	191.401209417912	1
11	2605	193.429729342151	0
11	2609	193.690108094434	1
11	2627	195.898079554912	0
11	2655	198.366429767673	1
11	2658	199.059723949221	0
11	2659	199.424100757515	1
11	2681	201.528074161982	0
11	2705	203.996424374743	1
11	2710	205.006461846417	0
11	2714	205.158093420596	1
11	2730	206.789840047848	0
11	2739	207.474812059178	1
11	2756	209.258190260609	0
11	2780	211.72654047337	1
11	2834	218.153957986648	0
11	2847	220.622308199409	1
11	2852	220.655310135437	0
11	2871	222.360071409839	1
11	2877	223.123660348198	0
11	2898	225.592010560959	1
11	2972	233.800103741523	0
11	2991	236.268453954284	1
11	3014	238.03883572932	0
11	3035	240.507185942081	1
11	3040	241.30447817964	0
11	3068	243.772828392401	1
11	3072	244.719246534414	0
11	3085	245.296042062163	1
11	3094	247.187596747175	0
11	3095	247.418694807691	1
11	3104	247.95267865652	0
11	3119	249.655946959936	1
11	3130	250.421028869281	0
11	3140	251.030034725244	1
11	3150	252.889379082042	0
11	3174	255.357729294803	1
11	3189	256.764027388325	0
11	3210	259.232377601086	1
11	3297	269.245379054423	0
11	3318	271.713729267184	1
11	3341	274.644275600977	0
11	3361	277.112625813738	1
11	3380	278.696763488585	0
11	3401	281.165113701346	1
11	3450	286.152179914443	0
11	3470	288.620530127204	1
11	3507	292.910412147369	0
11	3531	295.37876236013	1
11	3560	298.26118110899	0
11	3578	300.729531321751	1
11	3583	301.056097911905	0
11	3605	303.524448124666	1
11	3650	309.066901497048	0
11	3672	311.535251709809	1
11	3683	312.235765123565	0
11	3701	314.704115336326	1
11	3732	317.825598729395	0
11	3750	320.293948942156	1
11	3754	320.404704620945	0
11	3773	322.873054833706	1
11	3800	325.416237044133	0
11	3825	327.884587256894	1
11	3861	331.795137374648	0
11	3874	334.263487587409	1
11	3942	341.257750656665	0
11	3967	343.726100869426	1
11	4010	348.974671321947	0
11	4034	351.443021534708	1
11	4150	364.680294173823	0
11	4168	367.148644386584	1
11	4179	368.134101181865	0
11	4201	370.602451394626	1
11	4217	371.824413438949	0
11	4237	374.29276365171	1
11	4242	374.523861712226	0
11	4257	376.992211924987	1
11	4265	377.223309985503	0
11	4284	379.691660198264	1
11	4302	381.395699298232	0
11	4319	383.864049510993	1
11	4428	395.718300780398	0
11	4452	398.186650993159	1
11	4460	398.818896171719	0
11	4478	401.28724638448	1
11	4507	403.944351303513	0
11	4523	406.412701516274	1
11	4537	406.91724099155	0
11	4554	409.385591204311	1
11	4565	410.05785322559	0
11	4582	412.526203438351	1
11	4628	417.715034084658	0
11	4647	420.183384297419	1
11	4667	421.23752043725	0
11	4683	423.705870650011	1
11	4707	425.813378904489	0
11	4723	428.28172911725	1
11	4737	429.622270845995	0
11	4762	432.090621058756	1
11	4781	434.072198823848	0
11	4798	436.540549036609	1
11	4811	437.973200815911	0
11	4838	440.441551028672	1
11	4903	447.408965090705	0
11	4922	449.877315303466	1
11	4947	452.807861637259	0
11	4972	455.27621185002	1
11	4977	455.507309910536	0
11	4992	457.975660123297	1
11	5000	458.206758183813	0
11	5017	460.675108396574	1
11	5096	468.751106086805	0
11	5111	471.219456299566	1
11	5116	471.54602288972	0
11	5139	474.014373102481	1
11	5157	476.398177365961	0
11	5182	478.866527578722	1
11	5195	479.930773298465	0
11	5209	482.399123511226	1
11	5217	482.72569010138	0
11	5238	485.194040314141	1
11	5251	485.520606904295	0
11	5267	487.988957117056	1
11	5272	488.31552370721	0
11	5294	490.783873919971	1
11	5342	496.700274115955	0
11	5359	499.168624328716	1
11	5366	499.334148018285	0
11	5388	501.802498231046	1
11	5410	504.097378829522	0
11	5430	506.565729042283	1
11	5499	513.469774933445	0
11	5509	515.938125146206	1
11	5522	516.462053880148	0
11	5542	518.930404092909	1
11	5612	526.971730309875	0
11	5634	529.440080522636	1
11	5676	534.62783573069	0
11	5704	537.096185943451	1
11	5715	538.62402615968	0
11	5738	541.092376372441	1
11	5746	541.418942962595	0
11	5762	543.887293175356	1
11	5770	544.21385976551	0
11	5791	546.682209978271	1
11	5812	548.909377804673	0
11	5832	551.377728017434	1
11	5858	553.395437181248	0
11	5874	555.863787394009	1
11	5919	560.785792568339	0
11	5936	563.2541427811	1
11	5941	563.485240841616	0
11	5964	565.953591054377	1
11	5972	566.57319418883	0
11	5997	569.041544401591	1
11	6039	574.088598865503	0
11	6065	576.556949078264	1
11	6079	577.75286140049	0
11	6097	580.221211613251	1
11	6105	580.547778203405	0
11	6129	583.016128416166	1
11	6154	586.137611809235	0
11	6172	588.605962021996	1
11	6231	594.52236221798	0
11	6243	596.990712430741	1
11	6279	600.11219582381	0
11	6297	602.580546036571	1
11	6308	602.907112626725	0
11	6323	605.375462839486	1
11	6328	605.70202942964	0
11	6349	608.170379642401	1
11	6401	614.014001279905	0
11	6432	616.482351492666	1
11	6445	617.474206307156	0
11	6461	619.942556519917	1
11	6498	623.823071229777	0
11	6522	626.291421442538	1
11	6538	628.06136385296	0
11	6557	630.529714065721	1
11	6567	631.215979269148	0
11	6593	633.684329481909	1
11	6612	636.370344220095	0
11	6635	638.838694432856	1
11	6640	639.069792493372	0
11	6659	641.538142706133	1
11	6667	642.035947867535	0
11	6689	644.504298080296	1
11	6697	644.83086467045	0
11	6714	647.299214883211	1
11	6719	647.625781473365	0
11	6748	650.094131686126	1
11	6753	650.42069827628	0
11	6766	652.889048489041	1
11	6798	656.01053188211	0
11	6818	658.478882094871	1
11	6849	662.361339789201	0
11	6877	664.829690001962	1
11	6910	668.763723499419	0
11	6929	671.23207371218	1
11	6945	672.7800326996	0
11	6967	675.248382912361	1
11	7053	684.960413139081	0
11	7075	687.428763351842	1
11	7098	689.54953351709	0
11	7117	692.017883729851	1
11	7277	710.766854643147	0
11	7303	713.235204855908	1
11	7316	714.654344145128	0
11	7340	717.122694357889	1
11	7413	725.452137238236	0
11	7434	727.920487450997	1
11	7468	731.473285560815	0
11	7490	733.941635773576	1
11	7541	739.85803596956	0
11	7571	742.326386182321	1
11	7585	744.348275151175	0
11	7609	746.816625363936	1
11	7660	752.446619971006	0
11	7682	754.914970183767	1
11	7709	757.84551651756	0
11	7734	760.313866730321	1
11	7756	763.244413064114	0
11	7780	765.712763276875	1
11	7811	768.643309610668	0
11	7833	771.111659823429	1
11	7838	771.342757883945	0
11	7862	773.811108096706	1
11	7889	776.741654430499	0
11	7910	779.21000464326	1
11	7923	780.677795957248	0
11	7946	783.146146170009	1
11	7967	786.114507365829	0
11	7995	788.58285757859	1
11	8020	791.695593062384	0
11	8044	794.163943275145	1
11	8112	801.34620563369	0
11	8132	803.814555846451	1
11	8137	804.141122436605	0
11	8163	806.609472649366	1
11	8183	809.135033709823	0
11	8204	811.603383922584	1
11	8212	811.8344819831	0
11	8227	814.302832195861	1
11	8232	814.533930256377	0
11	8255	817.002280469138	1
11	8339	826.171729813902	0
11	8358	828.640080026663	1
11	8368	829.29537366284	0
11	8385	831.763723875601	1
11	8392	831.905722476983	0
11	8412	834.374072689744	1
11	8422	834.88520726867	0
11	8438	837.353557481431	1
11	8444	837.639715140064	0
11	8467	840.108065352825	1
11	8591	854.841693129307	0
11	8615	857.310043342068	1
11	8652	862.025017816563	0
11	8676	864.493368029324	1
11	8718	868.522895721917	0
11	8730	870.991245934678	1
11	8746	872.04367111855	0
11	8771	874.512021331311	1
11	8796	877.730640668439	0
11	8821	880.1989908812	1
11	8848	883.511656444712	0
11	8873	885.980006657473	1
11	8898	888.636916375848	0
11	8914	891.105266588609	1
11	8936	892.81793018141	0
11	8948	895.286280394171	1
11	8964	896.3733769328	0
11	8986	898.841727145561	1
11	8991	899.168293735715	0
11	9010	901.636643948476	1
11	9082	909.014619821072	0
11	9104	911.482970033833	1
11	9126	914.377093989483	0
11	9152	916.845444202244	1
11	9180	919.81241291418	0
11	9201	922.280763126941	1
11	9318	936.009102553842	0
11	9338	938.477452766603	1
11	9387	944.107447373673	0
11	9402	946.575797586434	1
11	9484	955.066629794015	0
11	9501	957.534980006776	1
11	9506	957.604688740058	0
11	9525	960.073038952819	1
11	9607	969.04121380859	0
11	9628	971.509564021351	1
11	9633	971.836130611505	0
11	9656	974.304480824266	1
11	9675	976.500826652997	0
11	9693	978.969176865758	1
11	9781	989.198921584818	0
11	9803	991.667271797579	1
11	9812	992.457517043251	0
11	9831	994.925867256012	1
11	9838	995.396964565936	0
11	9859	997.865314778697	1
11	9902	1002.58021544357	0
11	9922	1005.048565656331	1
11	9927	1005.375132246485	0
11	9949	1007.843482459246	1
11	9981	1011.228434909385	0
11	9999	1013.696785122146	1
11	10122	1027.734466669805	0
11	10139	1030.202816882566	1
11	10150	1030.489792118537	0
11	10164	1032.958142331298	1
11	10202	1036.11921707855	0
11	10220	1038.587567291311	1
11	10253	1041.70905068438	0
11	10271	1044.177400897141	1
11	10303	1047.29888429021	0
11	10324	1049.767234502971	1
11	10346	1052.085378304753	0
11	10365	1054.553728517514	1
11	10375	1055.531436337142	0
11	10399	1057.999786549903	1
11	10420	1060.519200200198	0
11	10441	1062.987550412959	1
11	10470	1065.582619671138	0
11	10488	1068.050969883899	1
11	10514	1070.981516217692	0
11	10537	1073.449866430453	1
11	10570	1077.326434542044	0
11	10593	1079.794784754805	1
11	10617	1082.086948566705	0
11	10639	1084.555298779466	1
11	10684	1089.877654130631	0
11	10709	1092.346004343392	1
11	10823	1105.88951869001	0
11	10842	1108.357868902771	1
11	10898	1114.37688756017	0
11	10914	1116.845237772931	1
11	10937	1117.339789894198	0
11	10947	1119.808140106959	1
11	10969	1122.271033409955	0
11	10988	1124.739383622716	1
11	11061	1132.548738161843	0
11	11086	1135.017088374604	1
11	11099	1135.76827477634	0
11	11114	1138.236624989101	1
11	11165	1143.866619596171	0
11	11186	1146.334969808932	1
11	11223	1149.750716151086	0
11	11245	1152.219066363847	1
11	11251	1153.009311609519	0
11	11276	1155.47766182228	1
11	11294	1158.255172961281	0
11	11320	1160.723523174042	1
11	11356	1164.477296935681	0
11	11379	1166.945647148442	1
11	11383	1167.480306815555	0
11	11401	1169.948657028316	1
11	11414	1170.861102328941	0
11	11440	1173.329452541702	1
11	11445	1173.560550602218	0
11	11462	1176.028900814979	1
11	11599	1191.206556496398	0
11	11615	1193.674906709159	1
11	11634	1195.429474844705	0
11	11653	1197.897825057466	1
11	11684	1201.019308450535	0
11	11699	1203.487658663296	1
11	11718	1205.953929881542	0
11	11741	1208.422280094303	1
11	11877	1224.292620771139	0
11	11901	1226.7609709839	1
11	11959	1233.724758644295	0
11	11984	1236.193108857056	1
11	11995	1237.35322688843	0
11	12015	1239.821577101191	1
11	12023	1240.148143691345	0
11	12043	1242.616493904106	1
11	12100	1249.145102253974	0
11	12120	1251.613452466735	1
11	12171	1256.917644508835	0
11	12197	1259.385994721596	1
11	12202	1259.71256131175	0
11	12220	1262.180911524511	1
11	12245	1265.136004348047	0
11	12263	1267.604354560808	1
11	12270	1267.746995528484	0
11	12293	1270.215345741245	1
11	12318	1273.42315753422	0
11	12344	1275.891507746981	1
11	12348	1276.139584986744	0
11	12366	1278.607935199505	1
11	12405	1282.07189573507	0
11	12417	1284.540245947831	1
11	12453	1287.6617293409	0
11	12465	1290.130079553661	1
11	12502	1293.25156294673	0
11	12514	1295.719913159491	1
11	12611	1305.833515992791	0
11	12629	1308.301866205552	1
11	12662	1311.232412539345	0
11	12683	1313.700762752106	1
11	12731	1319.330757359176	0
11	12757	1321.799107571937	1
11	12762	1322.030205632453	0
11	12775	1324.498555845214	1
11	12783	1324.72965390573	0
11	12804	1327.198004118491	1
11	12830	1329.585481384625	0
11	12848	1332.053831597386	1
11	12892	1336.497076828111	0
11	12914	1338.965427040872	1
11	12933	1340.926343545392	0
11	12946	1343.394693758153	1
11	12959	1343.91521992306	0
11	12986	1346.383570135821	1
11	13002	1348.675733947721	0
11	13023	1351.144084160482	1
11	13031	1351.7241366385	0
11	13056	1354.192486851261	1
11	13088	1357.534649413775	0
11	13108	1360.002999626536	1
11	13135	1362.957276021704	0
11	13157	1365.425626234465	1
11	13193	1368.714316625435	0
11	13212	1371.182666838196	1
11	13220	1371.50923342835	0
11	13239	1373.977583641111	1
11	13255	1376.019171097993	0
11	13278	1378.487521310754	1
11	13307	1381.999332120348	0
11	13331	1384.467682333109	1
11	13336	1385.483817442925	0
11	13362	1387.952167655686	1
11	13412	1393.86856785167	0
11	13432	1396.336918064431	1
11	13463	1399.4584014575	0
11	13487	1401.926751670261	1
11	13500	1402.863253106548	0
11	13513	1405.331603319309	1
11	13523	1405.71310210404	0
11	13544	1408.181452316801	1
11	13635	1419.022819077905	0
11	13655	1421.491169290666	1
11	13663	1421.909791743702	0
11	13683	1424.378141956463	1
11	13688	1424.609240016979	0
11	13706	1427.07759022974	1
11	13760	1432.99740309248	0
11	13782	1435.465753305241	1
11	13820	1440.515459527329	0
11	13847	1442.98380974009	1
11	13889	1447.918334631298	0
11	13913	1450.386684844059	1
11	13923	1451.603722749749	0
11	13947	1454.07207296251	1
11	13964	1455.3567375158	0
11	13976	1457.825087728561	1
11	14020	1462.401515842857	0
11	14040	1464.869866055618	1
11	14099	1470.854305283622	0
11	14120	1473.322655496383	1
11	14168	1478.598205482519	0
11	14187	1481.06655569528	1
11	14192	1481.297653755796	0
11	14215	1483.766003968557	1
11	14271	1490.249931891603	0
11	14292	1492.718282104364	1
11	14311	1494.794895122181	0
11	14330	1497.263245334942	1
11	14360	1500.07540636244	0
11	14382	1502.543756575201	1
11	14410	1505.66523996827	0
11	14427	1508.133590181031	1
11	14481	1513.69103303512	0
11	14500	1516.159383247881	1
11	14508	1516.390481308397	0
11	14520	1518.858831521158	1
11	14528	1519.089929581674	0
11	14551	1521.558279794435	1
11	14622	1529.575266884839	0
11	14644	1532.0436170976	1
11	14672	1534.749196638585	0
11	14692	1537.217546851346	1
11	14742	1542.602008064523	0
11	14766	1545.070358277284	1
11	14820	1551.483308860998	0
11	14841	1553.951659073759	1
11	14876	1558.138351032805	0
11	14899	1560.606701245566	1
11	14916	1562.281101954106	0
11	14937	1564.749452166867	1
11	14957	1567.1534096324	0
11	14982	1569.621759845161	1
11	14996	1570.379446773937	0
11	15011	1572.847796986698	1
11	15022	1573.078895047214	0
11	15044	1575.547245259975	1
11	15193	1592.307660858635	0
11	15212	1594.776011071396	1
11	15217	1595.10257766155	0
11	15236	1597.570927874311	1
11	15241	1597.897494464465	0
11	15265	1600.365844677226	1
11	15285	1602.772826053261	0
11	15304	1605.241176266022	1
11	15309	1605.472274326538	0
11	15336	1607.940624539299	1
11	15359	1610.871170873092	0
11	15382	1613.339521085853	1
11	15387	1613.570619146369	0
11	15408	1616.03896935913	1
11	15413	1616.270067419646	0
11	15432	1618.738417632407	1
11	15476	1623.0517456907	0
11	15497	1625.520095903461	1
11	15529	1628.930702645242	0
11	15549	1631.399052858003	1
11	15553	1631.436496099445	0
11	15568	1633.904846312206	1
11	15576	1634.23141290236	0
11	15594	1636.699763115121	1
11	15669	1645.41108011402	0
11	15687	1647.879430326781	1
11	15728	1651.866673297566	0
11	15754	1654.335023510327	1
11	15818	1662.18058093151	0
11	15839	1664.648931144271	1
11	15847	1664.860136338632	0
11	15860	1667.328486551393	1
11	15871	1667.77041453734	0
11	15889	1670.238764750101	1
11	15912	1672.390687624669	0
11	15937	1674.85903783743	1
11	15970	1678.357377705017	0
11	15985	1680.825727917778	1
11	15995	1681.056825978294	0
11	16013	1683.525176191055	1
11	16063	1689.155170798125	0
11	16084	1691.623521010886	1
11	16089	1691.854619071402	0
11	16112	1694.322969284163	1
11	16116	1694.423028965991	0
11	16135	1696.891379178752	1
11	16140	1697.253515617956	0
11	16161	1699.721865830717	1
11	16189	1702.275840391929	0
11	16209	1704.74419060469	1
11	16248	1709.206599928376	0
11	16276	1711.674950141137	1
11	16337	1718.849101804172	0
11	16360	1721.317452016933	1
11	16383	1723.66875059564	0
11	16401	1726.137100808401	1
11	16455	1732.1425705807	0
11	16476	1734.610920793461	1
11	16483	1734.8484178073	0
11	16503	1737.316768020061	1
11	16511	1737.643334610215	0
11	16532	1740.111684822976	1
11	16542	1740.444687990388	0
11	16554	1742.913038203149	1
11	16562	1743.233168216045	0
11	16584	1745.701518428806	1
11	16589	1745.843584536942	0
11	16604	1748.311934749703	1
11	16612	1748.823001821875	0
11	16636	1751.291352034636	1
11	16667	1754.412835427705	0
11	16688	1756.881185640466	1
11	16710	1759.340825903327	0
11	16730	1761.809176116088	1
11	16738	1762.040274176604	0
11	16756	1764.508624389365	1
11	16794	1768.38741944228	0
11	16809	1770.855769655041	1
11	16856	1775.537515542989	0
11	16874	1778.00586575575	1
11	16884	1778.236963816266	0
11	16903	1780.705314029027	1
11	16926	1783.63586036282	0
11	16951	1786.104210575581	1
11	16973	1787.951837062685	0
11	16986	1790.420187275446	1
11	16994	1790.7467538656	0
11	17015	1793.215104078361	1
11	17029	1794.433653455928	0
11	17053	1796.902003668689	1
