version 2
run conf3-1-20161125-01:35:21-2008
attr configname conf3
attr datetime 20161125-01:35:21
attr experiment conf3
attr i 3
attr inifile omnetpp.ini
attr iterationvars "$i=3, $p=5, $q=6"
attr iterationvars2 "$i=3, $p=5, $q=6, $repetition=0"
attr measurement "$i=3, $p=5, $q=6"
attr network Omrezje
attr p 5
attr processid 2008
attr q 6
attr repetition 0
attr replication #0
attr resultdir results
attr runnumber 1
attr seedset 1
param Omrezje.router*.processingTime "truncnormal(${p = 5..7 step 2}, ${p} * 0.5)"
param Omrezje.router*.queueCapacity "truncnormal(${q = 1..6 step 5}, 0)"
param Omrezje.source*.interArrivalTime "truncnormal(${i = 3..5 step 2}, ${i} * 0.5)"

vector 0  Omrezje.router  droppedPackage:vector  ETV
attr interpolationmode  none
attr title  "drop package, vector"
vector 1  Omrezje.router  queueLength:vector  ETV
attr interpolationmode  none
attr title  "queue length, vector"
vector 2  Omrezje.router1  droppedPackage:vector  ETV
attr interpolationmode  none
attr title  "drop package, vector"
vector 3  Omrezje.router1  queueLength:vector  ETV
attr interpolationmode  none
attr title  "queue length, vector"
vector 4  Omrezje.router2  droppedPackage:vector  ETV
attr interpolationmode  none
attr title  "drop package, vector"
vector 5  Omrezje.router2  queueLength:vector  ETV
attr interpolationmode  none
attr title  "queue length, vector"
vector 6  Omrezje.router3  droppedPackage:vector  ETV
attr interpolationmode  none
attr title  "drop package, vector"
vector 7  Omrezje.router3  queueLength:vector  ETV
attr interpolationmode  none
attr title  "queue length, vector"
vector 8  Omrezje.router4  droppedPackage:vector  ETV
attr interpolationmode  none
attr title  "drop package, vector"
vector 9  Omrezje.router4  queueLength:vector  ETV
attr interpolationmode  none
attr title  "queue length, vector"
vector 10  Omrezje.router5  droppedPackage:vector  ETV
attr interpolationmode  none
attr title  "drop package, vector"
vector 11  Omrezje.router5  queueLength:vector  ETV
attr interpolationmode  none
attr title  "queue length, vector"
0	0	0	0
0	439	15.639732887768	1
0	458	16.105209583128	2
0	3317	106.697158864792	3
0	3971	138.657668331092	4
0	4029	141.720098575448	5
0	4062	143.232835115057	6
0	4069	143.780622267786	7
0	4267	153.478742988445	8
0	4339	157.227120036207	9
0	4404	160.397917052105	10
0	4441	162.211914322224	11
0	4559	168.29742570462	12
0	4585	169.395391951256	13
0	4667	173.970558735221	14
0	4747	177.718935782983	15
0	4752	178.178901302207	16
0	4763	178.47890074776	17
0	4771	178.987657971656	18
0	5110	195.44802581966	19
0	5362	208.485600966932	20
0	5378	209.156237598672	21
0	5918	236.660748101791	22
0	6113	246.524415397947	23
0	6117	247.488133975903	24
0	6180	250.440727855796	25
0	6206	251.647369334641	26
0	6320	257.648839292392	27
0	6322	257.734041849291	28
0	6804	282.385092954805	29
0	6810	282.89313550612	30
0	7251	305.654624549656	31
0	7296	307.4442512942	32
0	7363	310.83807630858	33
0	7573	321.56104911549	34
0	7856	336.39234816982	35
0	7952	341.382501438	36
0	8130	351.197728895303	37
0	8140	351.56397648114	38
0	8223	355.9954440056	39
0	8256	358.02276052637	40
0	8267	358.3516265099	41
0	8284	359.229402005215	42
0	8327	361.74545152428	43
0	8377	364.352355941909	44
0	8467	369.190595482322	45
0	8469	369.475309878603	46
0	8562	374.598263815297	47
0	8584	375.640611273496	48
0	8604	376.812498578773	49
0	8857	390.930844203335	50
0	8932	395.090079562073	51
0	9066	402.551254981204	52
0	9117	405.138554268772	53
0	9316	416.545613886805	54
0	9617	433.164991882407	55
0	9647	434.86706957678	56
0	10421	478.883411756962	57
0	10621	490.345900034236	58
0	10629	490.593607464025	59
0	10632	490.71080207072	60
0	10702	494.640439122735	61
0	10714	495.716561400719	62
0	10755	497.656130884184	63
0	10790	499.829058699919	64
0	10824	501.465470753802	65
0	10893	505.449828080722	66
0	10950	508.381354752238	67
0	10955	508.758784747297	68
0	11033	513.297678584784	69
0	11043	513.881738683991	70
0	11069	515.69573595411	71
0	11130	519.004692620685	72
0	11151	520.30555581489	73
0	11158	520.818689890804	74
0	11303	529.250600494073	75
0	11373	533.409835852811	76
0	11536	542.816454564676	77
0	11575	545.0120023008	78
0	11779	557.817964057436	79
0	11850	561.9811273727	80
0	11861	562.460916910244	81
0	12030	572.293564575336	82
0	12076	575.376609003458	83
0	12105	577.171183194438	84
0	12108	577.209888407882	85
0	12139	579.158517832266	86
0	12147	579.516421283057	87
0	12494	600.23215368109	88
0	12504	601.038571953542	89
0	12534	602.785952877908	90
0	12556	604.064259686917	91
0	12637	609.187213623611	92
0	12643	609.49467757402	93
0	12705	613.031860751296	94
0	12836	621.554052121691	95
0	13008	631.289450565888	96
0	13105	637.64036463185	97
0	13111	638.083149350167	98
0	13164	641.12209823098	99
0	13328	650.954745896072	100
0	13416	656.584646984724	101
0	13811	680.452688891348	102
0	13828	681.501749731538	103
0	13852	683.029499362019	104
0	14612	729.136084792265	105
0	14627	729.615927216808	106
0	14649	731.372442488643	107
0	14849	743.674863908522	108
0	14873	745.24767814922	109
0	15428	779.53554146538	110
0	15442	780.063072802002	111
0	15602	789.781449338768	112
0	15615	790.611532032593	113
0	15650	792.847889728971	114
0	15659	793.528137039906	115
0	15815	803.093797602359	116
0	15818	803.360784704998	117
0	15898	808.277108537544	118
0	16227	828.195926092444	119
0	16262	830.76508083232	120
0	16424	840.27477855186	121
0	16541	847.607699197912	122
0	16590	850.456253595	123
0	16920	870.962227448358	124
0	16946	872.578795019697	125
0	17139	884.3945037388	126
0	17189	887.78832875318	127
0	17257	891.854613690826	128
0	17302	894.57597878194	129
0	17630	914.93892886822	130
0	17646	915.798784209627	131
0	17663	917.068812878604	132
0	17816	926.044692083015	133
0	17818	926.267689800962	134
0	17822	926.268880518648	135
0	18251	952.929490435462	136
0	18331	958.052444372156	137
0	18546	971.075155235277	138
0	18618	975.432118844108	139
0	18621	976.02777912706	140
0	18687	979.42160414144	141
0	18700	980.348442676654	142
0	18707	981.221214579406	143
0	19580	1034.896753422566	144
0	19597	1035.921152550182	145
0	19637	1038.237037496898	146
0	20437	1087.742860360845	147
0	20451	1088.507566992666	148
0	20513	1092.865814297539	149
0	20522	1093.423890825212	150
0	20636	1100.225125930611	151
0	20662	1101.59930465912	152
0	20688	1103.256538490304	153
0	20828	1111.78077970226	154
0	20844	1113.089186155396	155
0	20905	1116.86401640967	156
0	20926	1118.005509987942	157
0	21016	1123.643922749558	158
0	21247	1138.14231703396	159
0	21746	1168.880040654124	160
0	21795	1171.433839850942	161
0	21910	1178.597447528002	162
0	21986	1183.05110500424	163
0	21994	1183.462417586692	164
0	22038	1186.44493001862	165
0	22051	1186.834043643586	166
0	22128	1191.925655597718	167
0	22157	1193.70832546008	168
0	22281	1201.583015141224	169
0	22402	1209.077187270162	170
0	22485	1214.200141206856	171
0	22690	1226.164634303954	172
0	22724	1228.298974347961	173
0	22846	1236.308524524971	174
0	22872	1237.35230523432	175
0	22874	1237.468759943365	176
0	22886	1238.544882221349	177
0	22918	1240.913605801592	178
0	22930	1241.431478461665	179
0	22970	1244.13995526308	180
0	22974	1244.389525177534	181
0	23142	1254.32143030622	182
0	23185	1256.800340271747	183
0	23205	1257.960575690141	184
0	23220	1259.00998687743	185
0	23953	1304.630642204986	186
0	23966	1305.22880552192	187
0	24038	1309.742139457236	188
0	24040	1309.75359614168	189
0	24363	1329.40743478742	190
0	24365	1329.681930803857	191
0	24543	1340.491319761844	192
0	24565	1342.273989624206	193
0	24851	1359.530005752	194
0	24914	1363.552290248496	195
0	25726	1412.984939940702	196
0	25745	1414.781829615436	197
0	25834	1419.90478355213	198
0	25847	1420.734866245955	199
0	25886	1422.971223942333	200
0	25891	1423.363387597426	201
0	25909	1424.24125261131	202
0	26035	1432.650235270886	203
0	26037	1432.704490622336	204
0	26067	1434.455527276182	205
0	26070	1434.487160484698	206
0	26291	1447.76945612588	207
0	26403	1454.55710615464	208
0	26537	1462.878733157901	209
0	26550	1463.696450675974	210
0	26733	1474.92005624092	211
0	26852	1481.84523439701	212
0	26902	1485.10153128406	213
0	27376	1514.67175360944	214
0	27380	1514.86806662561	215
0	27395	1515.64595641348	216
0	27921	1547.97863196948	217
0	27963	1550.64200725199	218
0	28391	1576.878235446334	219
0	28405	1577.92987071213	220
0	28449	1580.660144275142	221
0	28521	1585.056274079812	222
0	28623	1591.79090438994	223
0	28628	1592.149900971016	224
0	28690	1596.075535511945	225
0	28775	1601.198489448639	226
0	28795	1602.395808844404	227
0	28797	1602.590836824986	228
0	28832	1604.721569409996	229
0	28834	1605.161207966939	230
0	28877	1607.518762781098	231
0	28914	1609.901067674934	232
0	28917	1610.284161903633	233
0	28990	1614.577033146502	234
0	29032	1617.40567407341	235
0	29041	1617.764670654486	236
0	29062	1619.470540907634	237
0	29064	1619.699987083196	238
0	29087	1620.739620546022	239
0	29138	1624.24835687364	240
0	29228	1629.945894956584	241
0	29307	1635.068848893278	242
0	29312	1635.360082245918	243
0	29402	1641.21748194554	244
0	29435	1643.02044375688	245
0	29442	1643.379440337956	246
0	29466	1644.61130695992	247
0	29489	1646.452221924674	248
0	29568	1651.39895698868	249
0	29630	1654.79278200306	250
0	29632	1655.560664640054	251
0	29680	1658.389305566962	252
0	29685	1658.748302148038	253
0	29688	1658.801131568002	254
0	29706	1660.683618576748	255
0	29962	1676.05248038683	256
0	30002	1678.881121313738	257
0	30069	1683.165752435743	258
0	30075	1683.382750730732	259
0	30107	1685.33720713248	260
0	30150	1688.299074563278	261
0	30163	1688.73103214686	262
0	30306	1698.13172222837	263
0	30420	1704.934068724258	264
0	30435	1705.70015721876	265
0	30450	1706.790204006994	266
0	30481	1708.780522119213	267
0	30509	1711.126673066174	268
0	30543	1712.743240637513	269
0	30623	1717.797017558554	270
0	30625	1717.866194574207	271
0	30643	1719.27545727628	272
0	30672	1721.372580939562	273
0	30704	1722.989148510901	274
0	30715	1724.149383929295	275
0	30760	1726.495534876256	276
0	30827	1730.393083295242	277
0	30850	1732.545989056192	278
0	30902	1735.592611198448	279
0	30911	1736.24458234818	280
0	30931	1737.527927627158	281
0	31009	1742.650881563852	282
0	31028	1743.480964257677	283
0	31108	1748.795453823946	284
0	31175	1752.323775845086	285
0	31241	1756.60753243446	286
0	31269	1758.849826067759	287
0	31308	1761.207380881918	288
0	31403	1766.960255884014	289
0	31425	1768.265651247322	290
0	31473	1771.453288755306	291
0	31484	1771.87657971656	292
0	31694	1785.624831169623	293
0	31701	1786.463153984312	294
0	31707	1786.625551214198	295
0	31714	1786.822150565388	296
0	31717	1787.15195756388	297
0	31859	1796.45819887929	298
0	31872	1797.068058438776	299
1	0	0	0
1	206	6.916323832546	5
1	215	7.122953936694	4
1	238	8.78765002876	3
1	318	11.832647665092	2
1	319	11.942531844048	3
1	325	12.149161948196	4
1	339	12.245907873388	3
1	376	13.813858040262	4
1	415	14.900638180523	3
1	422	15.239993088866	2
1	435	15.57530005752	1
1	437	15.605081570869	0
1	460	16.142273837978	1
1	492	16.858855676594	2
1	495	16.96873985555	3
1	506	17.175369959698	4
1	511	17.27211588489	5
1	533	17.6258102301	4
1	571	18.757764355836	3
1	574	18.789273079603	2
1	577	18.840066051764	3
1	584	19.033557902148	2
1	596	19.437405319487	1
1	609	19.926846192025	2
1	633	20.266201100368	3
1	655	20.601508069022	4
1	660	20.631289582371	5
1	663	20.66594089927	6
1	671	20.700306751216	5
1	679	20.786443699601	4
1	694	21.059867335943	3
1	700	21.13141759463	4
1	701	21.16848184948	5
1	740	21.885063688096	6
1	746	21.994947867052	5
1	754	22.2015779712	6
1	759	22.298323896392	5
1	762	22.36295008628	4
1	769	22.652018241602	5
1	801	23.783972367338	6
1	805	23.815481091105	5
1	806	23.866274063266	6
1	808	23.88071829253	5
1	822	24.05976591365	6
1	838	24.278970705498	5
1	852	24.463613330989	6
1	884	24.953054203527	5
1	889	25.087465229562	4
1	897	25.258339664454	5
1	898	25.29240911187	6
1	907	25.627716080524	5
1	909	25.657497593873	6
1	912	25.726514762718	5
1	918	25.812651711103	6
1	935	26.086075347445	5
1	938	26.157625606132	6
1	943	26.182821272637	5
1	944	26.194689860982	6
1	960	26.58161916273	5
1	969	27.021155878554	6
1	980	27.324531907894	5
1	985	27.389158097782	6
1	997	27.61476968347	5
1	998	27.678226253104	6
1	1010	27.987783038622	5
1	1044	28.699158500297	4
1	1051	28.841689102607	5
1	1055	28.906926304032	6
1	1070	29.041866957859	5
1	1074	29.15060011504	4
1	1080	29.305178717	5
1	1107	29.913118502884	4
1	1113	29.979262215029	5
1	1117	30.113673241064	6
1	1123	30.284547675956	5
1	1133	30.653924092026	6
1	1134	30.75272277422	5
1	1137	30.829020023333	4
1	1141	30.91577757628	3
1	1157	31.112283358947	4
1	1162	31.209029284139	5
1	1179	31.497942995276	4
1	1185	31.607827174232	5
1	1207	32.227717486676	4
1	1214	32.350739919396	5
1	1221	32.475924063702	4
1	1224	32.54442512942	3
1	1226	32.640977694972	4
1	1238	32.737723620164	3
1	1244	33.013991050124	4
1	1270	33.725366511799	5
1	1276	33.867897114109	6
1	1284	34.068074969361	5
1	1287	34.176808126542	6
1	1291	34.331386728502	5
1	1292	34.37440549093	6
1	1313	34.759955181511	5
1	1325	34.939326514386	6
1	1330	35.005470226531	5
1	1342	35.310755687458	6
1	1355	35.778930785722	5
1	1356	35.855228034835	6
1	1362	35.941985587782	5
1	1372	36.138491370449	6
1	1375	36.235237295641	5
1	1380	36.414266827822	4
1	1392	36.524151006778	5
1	1394	36.537343659562	4
1	1396	36.634035185734	5
1	1415	37.253925498178	6
1	1426	37.376947930898	5
1	1433	37.502132075204	6
1	1434	37.570633140922	5
1	1441	37.667185706474	6
1	1444	37.763931631666	5
1	1454	38.040199061626	6
1	1486	38.751574523301	5
1	1498	39.094282980863	6
1	1510	39.357594740004	5
1	1519	39.557763294693	4
1	1526	39.786163193013	5
1	1537	40.031678238033	6
1	1555	40.805138797224	5
1	1562	40.968193599284	6
1	1573	41.261445307143	5
1	1579	41.330590660368	4
1	1583	41.440474839324	5
1	1589	41.55035901828	6
1	1592	41.563551671064	5
1	1599	41.660243197236	6
1	1618	42.4031559424	5
1	1632	42.596841152424	6
1	1636	42.72183193709	5
1	1639	42.72590017256	4
1	1642	42.790139643168	5
1	1674	43.72449767777	4
1	1676	43.777782534803	5
1	1695	44.315628749384	4
1	1697	44.383802751506	5
1	1704	44.583971306195	6
1	1716	44.812371204515	5
1	1747	45.831346808726	6
1	1763	46.246914492914	5
1	1765	46.287653318645	6
1	1769	46.35679867187	5
1	1773	46.466682850826	6
1	1776	46.589759682566	5
1	1779	46.677887851385	4
1	1807	47.429363953902	5
1	1815	47.748039948592	6
1	1817	47.752108184062	5
1	1821	47.81634765467	6
1	1825	47.844785873784	5
1	1830	48.048504230644	6
1	1850	48.750705689272	5
1	1851	48.803990546305	6
1	1860	49.341836760886	5
1	1864	49.410010763008	6
1	1867	49.51355020132	5
1	1869	49.598638850854	4
1	1876	49.838579216017	5
1	1896	50.100370493116	4
1	1933	51.273122504416	5
1	1938	51.383006683372	6
1	1946	51.615967694068	5
1	1948	51.704095862887	6
1	1970	52.455571965404	5
1	1971	52.606537143882	6
1	1979	52.778316195564	5
1	1982	52.870993885286	6
1	2011	53.776913700774	5
1	2024	54.368044772388	6
1	2032	54.539758212822	5
1	2037	54.624846862356	6
1	2041	54.864787227519	5
1	2046	55.014711251174	4
1	2055	55.126578504618	5
1	2079	56.299330515918	6
1	2083	56.30120023008	5
1	2089	56.64217570557	6
1	2093	56.690405343988	5
1	2100	56.923795724773	4
1	2103	57.148810065965	3
1	2118	57.481779976906	4
1	2125	57.804524207066	5
1	2133	57.91963325416	4
1	2150	58.803121712276	5
1	2168	59.565966224324	6
1	2174	59.69502524446	5
1	2177	59.890995239021	6
1	2185	60.040919262676	5
1	2189	60.15278651612	6
1	2215	60.995885990552	5
1	2226	61.327408241582	6
1	2230	61.71661335549	5
1	2231	61.722602970358	6
1	2242	61.950003736275	5
1	2248	62.175018077467	6
1	2256	62.507987988408	5
1	2264	62.830732218568	6
1	2269	62.945841265662	5
1	2290	63.829329723778	6
1	2305	64.721233255962	5
1	2307	64.77038498375	4
1	2323	65.067127274178	5
1	2325	65.527020693664	4
1	2345	66.022094002054	5
1	2351	66.280635883596	6
1	2360	66.377381808788	5
1	2363	66.48267527322	4
1	2368	66.742821366992	5
1	2378	66.976211747777	6
1	2383	67.206759573648	5
1	2384	67.53419599991	6
1	2398	67.972049277164	5
1	2410	68.4638464215	4
1	2432	69.392552218273	3
1	2439	69.747441267464	4
1	2440	69.796592995252	5
1	2454	70.09333528568	6
1	2465	70.371052387075	5
1	2472	70.553228705166	6
1	2476	70.828533655644	5
1	2480	70.838668796834	6
1	2491	71.048302013556	5
1	2498	71.40358982029	6
1	2500	71.500335745482	5
1	2501	71.508883284722	6
1	2505	71.769029378494	5
1	2512	72.05926715407	4
1	2515	72.23296758515	5
1	2517	72.329713510342	4
1	2531	72.998257288666	5
1	2543	73.27032530198	4
1	2549	73.490054433002	5
1	2571	74.418760229775	6
1	2579	74.773649278966	5
1	2580	74.822801006754	6
1	2585	75.005123401717	5
1	2602	75.397260398577	6
1	2606	75.74485748819	5
1	2610	75.854741667146	6
1	2615	76.074510025058	5
1	2629	76.526543756984	6
1	2635	76.66415031636	5
1	2636	76.795237389996	6
1	2641	77.085475165572	5
1	2645	77.182221090764	4
1	2648	77.259175596652	5
1	2649	77.355921521844	6
1	2659	77.767615492354	5
1	2668	78.024465300168	6
1	2686	78.516262444504	5
1	2707	79.799857290468	6
1	2711	80.031331413219	5
1	2714	80.05797533074	4
1	2721	80.24465133512	3
1	2731	80.661181320736	2
1	2732	80.771065499692	3
1	2738	81.10071803656	4
1	2752	81.690358327862	5
1	2756	81.728991079723	4
1	2768	82.111683177074	5
1	2771	82.285383608154	6
1	2786	82.793823503856	5
1	2805	83.542470456006	6
1	2840	85.057539424721	5
1	2849	85.367605271814	4
1	2863	85.797273511194	5
1	2867	86.126926048062	6
1	2877	86.716566339364	5
1	2889	87.137891188576	6
1	2897	87.428128964152	5
1	2905	87.820031515358	6
1	2949	89.884367965049	5
1	2950	90.083747436223	6
1	2977	90.823481522696	5
1	2992	91.742774350866	6
1	2999	91.992151492258	5
1	3006	92.454336975654	6
1	3038	93.649689775893	5
1	3058	94.910575976551	6
1	3077	95.410152818374	5
1	3086	95.849689534198	6
1	3105	97.01835950376	5
1	3123	97.67403683754	4
1	3138	97.944483193812	3
1	3144	98.675897787395	4
1	3150	98.772643712587	3
1	3153	98.922469811777	2
1	3169	100.13736425742	1
1	3183	100.436360829876	2
1	3196	100.874626732573	1
1	3213	102.044567515262	2
1	3249	103.448932948758	1
1	3254	103.702105798897	2
1	3261	103.8147504314	1
1	3281	105.242800483466	0
1	3289	105.462568841378	1
1	3300	105.85942101859	0
1	3327	107.070775526764	1
1	3361	108.728313810399	2
1	3396	110.48877685288	3
1	3400	110.60240046016	2
1	3430	112.096983538266	3
1	3464	113.754521821901	4
1	3469	113.99622547454	3
1	3497	115.514984864382	4
1	3520	116.243488542655	3
1	3531	117.123191549768	4
1	3565	118.780729833403	5
1	3578	119.414285558553	4
1	3598	120.541192875884	5
1	3612	121.228282828672	4
1	3634	122.066020674874	3
1	3636	122.068056807264	2
1	3638	122.14939956127	3
1	3666	123.806937844905	4
1	3681	124.537239495247	3
1	3690	124.90809581365	2
1	3704	125.567400887386	3
1	3726	126.489396416043	2
1	3737	127.175607572772	3
1	3743	127.57152553206	2
1	3750	127.863973304975	1
1	3758	128.374983521797	0
1	3769	128.833145856407	1
1	3792	129.660193431941	0
1	3806	130.593608898888	1
1	3820	131.47419070206	0
1	3837	132.201815584274	1
1	3872	133.859353867909	2
1	3896	134.740743478742	1
1	3912	135.61981691039	2
1	3919	136.033663554155	1
1	3935	136.735304289431	0
1	3941	137.228023595776	1
1	3947	137.434882484956	0
1	3975	138.885561879411	1
1	4007	140.646024921892	2
1	4015	141.14682558958	1
1	4017	141.156617490849	0
1	4040	142.254231607278	1
1	4054	142.995445221693	0
1	4072	143.911769890913	1
1	4094	144.573391143834	0
1	4108	145.672232933394	1
1	4139	147.28043961878	2
1	4147	147.680790358344	1
1	4178	148.937977902415	2
1	4190	149.48971497638	1
1	4204	150.305676071641	0
1	4211	150.698440944896	1
1	4220	151.32830063272	0
1	4242	152.306647630282	1
1	4253	152.803744295038	0
1	4273	153.964185913917	1
1	4283	154.406038808926	0
1	4305	155.724648956398	1
1	4337	157.08896038553	0
1	4344	157.332855641784	1
1	4362	158.619211057004	0
1	4372	158.990393925419	1
1	4388	159.434198474149	0
1	4409	160.7508569679	1
1	4424	161.50977567586	0
1	4444	162.359063653286	1
1	4476	164.016601936921	2
1	4482	164.238686474018	1
1	4507	165.777064979402	2
1	4513	165.929441906952	1
1	4532	166.771387174319	0
1	4543	167.385271664788	1
1	4556	168.17260610512	0
1	4573	169.042809948423	1
1	4577	169.155010306564	0
1	4611	170.803272990904	1
1	4641	172.41147967629	2
1	4647	172.595981846289	1
1	4657	173.295560041814	0
1	4670	174.069017959925	1
1	4674	174.07133413911	0
1	4707	175.829481002406	1
1	4714	175.934098632816	0
1	4740	177.437687687792	1
1	4743	177.580776132306	0
1	4774	179.095225971427	1
1	4810	180.855689013908	2
1	4814	180.889732798881	1
1	4828	181.87272576214	0
1	4836	182.463895699294	1
1	4871	183.903981804202	0
1	4872	184.121433982929	1
1	4909	185.88189702541	2
1	4928	187.263202921095	1
1	4932	187.490103710796	2
1	4952	187.860134456796	1
1	4968	188.820305636748	0
1	4978	189.147641994431	1
1	5012	190.908105036912	2
1	5032	192.05420080528	1
1	5043	192.516311722298	2
1	5077	193.736629469294	1
1	5080	194.173850005933	2
1	5104	195.170365306744	1
1	5107	195.294876031007	0
1	5116	195.934313048414	1
1	5139	197.5425197338	2
1	5176	198.84185083404	1
1	5183	199.200058017435	2
1	5187	199.585328418691	1
1	5211	200.960521059916	2
1	5245	202.568727745302	3
1	5257	203.333705466453	2
1	5272	204.033283661978	1
1	5279	204.226266028937	2
1	5298	205.256069508114	1
1	5301	205.540783904395	0
1	5312	205.986729071418	1
1	5341	207.594935756804	2
1	5345	207.755018667871	1
1	5357	208.31849975247	0
1	5380	209.252474040439	1
1	5410	210.663737841089	0
1	5411	211.01293708292	1
1	5447	212.621143768306	2
1	5458	213.401924799478	1
1	5474	214.278682051941	2
1	5507	215.81097590594	1
1	5508	216.039145094422	2
1	5545	217.647351779808	3
1	5556	218.318248632024	2
1	5572	219.304890063443	3
1	5581	219.703004235632	2
1	5612	221.065353105924	3
1	5624	221.873364292433	2
1	5641	222.5986259347	1
1	5642	222.67355979131	2
1	5658	223.687361562552	1
1	5673	224.331098074945	2
1	5677	224.411288706536	1
1	5711	226.091561117426	2
1	5725	226.996318229127	1
1	5739	227.699767802812	2
1	5748	228.150896297116	1
1	5771	229.357306086447	2
1	5775	229.38627596346	1
1	5805	231.117769128928	2
1	5825	232.119272165821	1
1	5835	232.725975814314	2
1	5839	232.78010097784	1
1	5848	233.067220129662	0
1	5865	234.383514097949	1
1	5901	235.993793128278	0
1	5902	236.14397714043	1
1	5907	236.17392599222	0
1	5933	237.752183825816	1
1	5966	239.409722109451	2
1	5983	240.194819982408	1
1	5999	241.170185151932	2
1	6013	241.726176282348	1
1	6030	242.778391837318	2
1	6037	242.96157602098	1
1	6055	243.970978951739	0
1	6068	244.435930120953	1
1	6082	245.317773919102	0
1	6092	246.196393163434	1
1	6106	246.35540103536	0
1	6127	247.80459984882	1
1	6161	249.302131246022	0
1	6164	249.462138132455	1
1	6170	249.74922604974	0
1	6187	251.222601174936	1
1	6191	251.281209801687	0
1	6233	252.830807860322	1
1	6259	254.425085182716	0
1	6262	254.488346143957	1
1	6279	255.56368179249	0
1	6287	256.248809186438	1
1	6302	256.5368760785	0
1	6326	257.857015871824	1
1	6341	258.591440651635	0
1	6358	259.514554155459	1
1	6378	260.686635729184	0
1	6387	261.27501719794	1
1	6421	262.883223883326	2
1	6452	264.540762166961	3
1	6458	264.670993056104	2
1	6477	265.809589665878	1
1	6484	266.301225209442	2
1	6518	267.909431894828	3
1	6524	267.979949722679	2
1	6544	269.230465908199	1
1	6551	269.566970178463	2
1	6555	269.793946992798	1
1	6561	270.11217613602	0
1	6583	271.327433220944	1
1	6615	272.93563990633	2
1	6649	274.593178189965	3
1	6672	275.582904656172	2
1	6682	276.055497539266	1
1	6688	276.353641232446	2
1	6698	276.89982616478	1
1	6706	277.314134622576	0
1	6713	277.961847917832	1
1	6725	278.225857596067	0
1	6743	279.619386201467	1
1	6763	280.29365117916	0
1	6782	281.379849243948	1
1	6802	282.230458455122	0
1	6812	282.988055929334	1
1	6846	284.645594212969	2
1	6879	286.40605725545	3
1	6894	287.08130120792	2
1	6914	288.014263940836	3
1	6944	289.671802224471	4
1	6952	290.203366356068	3
1	6980	291.432265266952	4
1	7009	293.040471952338	5
1	7028	293.86895123668	4
1	7042	294.698010235973	5
1	7045	294.845235591669	4
1	7052	295.408716676268	3
1	7067	295.921357869653	2
1	7071	296.458473278454	3
1	7100	297.513597206016	2
1	7107	298.06667996384	3
1	7140	299.724218247475	4
1	7156	300.531670612962	3
1	7159	300.65660126544	2
1	7172	301.484681289956	3
1	7192	302.452825751323	2
1	7207	303.092887975342	3
1	7221	303.840627279537	2
1	7224	304.05042627982	1
1	7239	304.750426258977	2
1	7242	304.823828055964	1
1	7245	305.091143465057	0
1	7269	306.510889301458	1
1	7276	306.812077617852	0
1	7309	308.119095986844	1
1	7321	308.963581216231	0
1	7335	309.776634270479	1
1	7344	310.214097401751	0
1	7366	311.53709731296	1
1	7402	313.145303998346	2
1	7430	314.802842281981	3
1	7442	315.337051338445	2
1	7469	316.563305324462	3
1	7503	318.171512009848	4
1	7507	318.245770511663	3
1	7522	319.44428975586	2
1	7534	319.829050293483	3
1	7539	320.460005275139	2
1	7557	321.01955135172	1
1	7570	321.536127553123	0
1	7574	321.589513335964	1
1	7595	323.19772002135	2
1	7624	324.383518301167	1
1	7632	324.855258304985	2
1	7664	326.477372948036	1
1	7665	326.615721347466	2
1	7699	328.223928032852	3
1	7731	329.881466316487	4
1	7755	331.20102639486	3
1	7757	331.269394233126	2
1	7767	331.641929358968	3
1	7790	333.250136044354	4
1	7799	333.329917925464	3
1	7824	334.578350899701	2
1	7827	334.59485140924	1
1	7836	334.907674327989	2
1	7843	335.828867085221	1
1	7854	336.310020613128	0
1	7862	336.66813737047	1
1	7887	337.98867642362	0
1	7890	338.276344055856	1
1	7918	339.701304836395	0
1	7922	339.933882339491	1
1	7944	341.226344445674	0
1	7955	341.694345381972	1
1	7978	343.302552067358	2
1	8016	344.824258773089	1
1	8020	344.960090350993	2
1	8036	346.14266827822	1
1	8046	346.720553393474	2
1	8066	347.776852652982	1
1	8076	348.32876007886	2
1	8089	348.685213155652	1
1	8094	348.983494131827	0
1	8111	349.986298362495	1
1	8125	351.058992110766	0
1	8141	351.746761404976	1
1	8163	352.899806589676	0
1	8169	353.354968090362	1
1	8175	353.624441700959	0
1	8199	355.012506373997	1
1	8203	355.070166646477	0
1	8230	356.772969416478	1
1	8236	356.884163916596	0
1	8268	358.381176101864	1
1	8272	358.689869881516	0
1	8296	360.038714385499	1
1	8308	360.891639775858	0
1	8328	361.79917742798	1
1	8332	362.00711785329	0
1	8362	363.407384113366	1
1	8372	364.067641545628	0
1	8385	365.064922397001	1
1	8404	365.807963608404	0
1	8421	366.825385439482	1
1	8425	367.130071789984	0
1	8447	368.433592124868	1
1	8451	368.53310155304	0
1	8477	370.091130408503	1
1	8487	370.439028456559	0
1	8512	371.851593450984	1
1	8517	371.92692656742	0
1	8543	373.45980013637	1
1	8560	374.313549419016	0
1	8569	375.117338420005	1
1	8578	375.555134250803	0
1	8605	376.877801462486	1
1	8629	378.486008147872	2
1	8632	378.514576273146	1
1	8635	378.71457659618	0
1	8660	380.143546431507	1
1	8670	380.556935106042	0
1	8693	381.904009473988	1
1	8708	382.498933600066	0
1	8723	383.512216159374	1
1	8747	384.844171688685	0
1	8751	385.169754443009	1
1	8782	386.93021748549	2
1	8797	387.62188753676	1
1	8813	388.538424170876	2
1	8819	388.89605163932	1
1	8835	389.682411229098	0
1	8846	390.195962454511	1
1	8853	390.389582771134	0
1	8869	391.956425496992	1
1	8898	392.744841473454	0
1	8904	393.564632182378	1
1	8925	394.805365165792	0
1	8933	395.222170466013	1
1	8967	396.982633508494	2
1	8976	397.485826800647	1
1	8996	398.59084019388	2
1	9027	400.213033498767	1
1	9034	400.248378477515	2
1	9047	401.176752076723	1
1	9056	402.008841519996	2
1	9060	402.427268262243	1
1	9064	402.47135169684	0
1	9094	403.617048205382	1
1	9114	405.05127303918	0
1	9118	405.274586489017	1
1	9147	407.035049531498	2
1	9158	407.550222198937	1
1	9181	408.626344476921	0
1	9182	408.643256216884	1
1	9209	410.174226975874	0
1	9213	410.300794500519	1
1	9239	412.061257543	2
1	9266	413.669464228386	3
1	9272	413.749298413615	2
1	9281	414.375253830004	1
1	9283	414.477290805184	0
1	9298	415.327002512021	1
1	9309	416.04665175436	0
1	9326	417.087465554502	1
1	9353	418.695672239888	2
1	9372	419.44047676874	1
1	9383	419.88752576641	0
1	9384	420.353210523523	1
1	9420	422.113673566004	2
1	9430	422.83430178312	1
1	9444	423.72188025139	2
1	9463	424.621161703392	1
1	9466	424.803849598956	0
1	9472	425.379418535025	1
1	9492	426.2281267975	0
1	9509	427.139881577506	1
1	9522	428.042037945713	0
1	9533	428.748088262892	1
1	9542	429.118160223697	0
1	9567	430.405626546527	1
1	9580	430.950757118931	0
1	9600	432.166089589008	1
1	9609	433.01577682626	0
1	9620	433.774296274394	1
1	9639	434.636497264048	0
1	9656	435.431834558029	1
1	9672	436.407983355028	0
1	9685	437.19229760051	1
1	9711	438.800504285896	2
1	9729	439.552821096594	1
1	9735	439.80342685502	0
1	9747	440.458042569531	1
1	9781	442.218505612012	2
1	9794	443.1972518694	1
1	9801	443.718214204976	0
1	9803	443.826712297398	1
1	9825	445.112977450168	0
1	9837	445.484250581033	1
1	9863	447.244713623514	2
1	9894	448.8529203089	3
1	9900	449.097334777088	2
1	9923	450.510458592535	3
1	9949	452.270921635016	4
1	9973	453.37872691254	3
1	9985	453.879128320402	4
1	9995	454.301792594232	3
1	10004	455.358885323556	2
1	10008	455.536666604037	3
1	10023	455.967673600231	2
1	10045	457.297129646518	3
1	10069	458.905336331904	4
1	10078	459.218116426778	3
1	10083	459.343242650476	2
1	10095	460.1663769413	1
1	10103	460.562874615539	2
1	10129	462.32333765802	3
1	10156	463.902715502571	2
1	10160	463.931544343406	3
1	10181	464.978837780555	2
1	10182	465.589082627041	3
1	10221	467.349545669522	4
1	10242	468.957752354908	5
1	10245	469.025669439265	4
1	10267	470.101791717249	3
1	10279	470.615290638543	4
1	10295	471.649674216202	3
1	10300	471.934388612483	2
1	10312	472.375753681024	3
1	10321	472.959137604768	2
1	10337	473.967087924416	1
1	10338	473.98396036641	2
1	10353	474.712104460558	1
1	10365	475.641498650045	2
1	10368	475.653563480684	1
1	10371	475.850701070332	0
1	10401	477.401961692526	1
1	10406	477.898366150075	0
1	10422	479.010168377912	1
1	10457	480.52932702758	0
1	10461	480.667706661547	1
1	10467	480.973655007026	0
1	10483	482.428169704028	1
1	10513	483.92315204196	0
1	10514	484.036376389414	1
1	10541	485.693914673049	2
1	10551	486.09660894372	1
1	10572	487.45437771553	2
1	10581	488.266969000521	1
1	10593	488.716059422054	0
1	10594	489.062584400916	1
1	10600	489.517485186041	0
1	10633	490.720122684551	1
1	10659	492.426204359259	0
1	10660	492.480585727032	1
1	10678	493.389922937215	0
1	10688	494.088792412418	1
1	10692	494.1046270851	0
1	10715	495.746330696053	1
1	10729	496.342516817108	0
1	10746	497.506793738534	1
1	10752	497.549158295953	0
1	10784	499.11500042392	1
1	10788	499.763393059429	0
1	10806	500.772538707555	1
1	10812	500.839515337413	0
1	10839	502.533001750036	1
1	10856	503.465030919692	0
1	10868	504.141208435422	1
1	10882	504.886346996123	0
1	10900	505.798746719057	1
1	10903	505.962469274107	0
1	10928	507.559209761538	1
1	10932	507.67992714262	0
1	10959	509.167416446924	1
1	10982	510.824954730559	2
1	10991	511.073752157	1
1	11001	511.71137862719	0
1	11018	512.58541777304	1
1	11027	512.995324964942	0
1	11049	514.193624458426	1
1	11064	515.132254869511	0
1	11070	515.851162742061	1
1	11101	517.611625784542	2
1	11114	517.86140218576	1
1	11121	518.21400241733	0
1	11131	519.219832469928	1
1	11149	520.255208806205	0
1	11159	520.877370753563	1
1	11186	522.637833796044	2
1	11198	523.130326249876	1
1	11200	523.163927979423	0
1	11214	524.24604048143	1
1	11238	525.903578765065	2
1	11242	525.941643827498	1
1	11258	527.080240437272	0
1	11277	527.664041807546	1
1	11284	528.0428772289	0
1	11304	529.272248492932	1
1	11325	530.929786776567	2
1	11331	531.064597764192	1
1	11337	531.43670224328	0
1	11356	532.690249819048	1
1	11369	532.962973914968	0
1	11383	534.298456504434	1
1	11393	534.83052725766	0
1	11415	535.955994788069	1
1	11442	537.71645783055	2
1	11447	537.879297747514	1
1	11453	538.22435227204	0
1	11471	539.324664515936	1
1	11496	540.747024552981	0
1	11506	540.982202799571	1
1	11517	541.823146830965	0
1	11530	542.742665842052	1
1	11534	542.79562158006	0
1	11565	544.350872527438	1
1	11572	544.619462304155	0
1	11584	546.008410811073	1
1	11611	547.711945412606	0
1	11617	547.768873853554	1
1	11645	549.37708053894	2
1	11649	549.742416240849	1
1	11665	551.034618822575	2
1	11694	552.628269245152	1
1	11696	552.695010120742	0
1	11697	552.795081865056	1
1	11717	553.901651599587	0
1	11724	554.403288550442	1
1	11740	555.19347734394	0
1	11750	556.060826834077	1
1	11777	557.544593077698	0
1	11780	557.821289876558	1
1	11806	559.024605536281	0
1	11812	559.429496561944	1
1	11830	561.087034845579	2
1	11834	561.238840299757	1
1	11844	561.802321384356	0
1	11865	562.84749788806	1
1	11893	564.455704573446	2
1	11913	565.37495238708	1
1	11920	566.113242857081	2
1	11936	566.92527532105	1
1	11945	567.437916514435	0
1	11949	567.873705899562	1
1	11958	568.063871930824	0
1	11980	569.481912584948	1
1	12003	571.139450868583	2
1	12022	572.048229257744	1
1	12027	572.16260241584	0
1	12041	572.899913911064	1
1	12054	574.108752950082	0
1	12062	574.50812059645	1
1	12070	575.357185924319	0
1	12089	576.165658880085	1
1	12097	576.607702109839	0
1	12114	577.926121922566	1
1	12125	578.309779804212	0
1	12148	579.534328607952	1
1	12171	581.191866891587	2
1	12188	582.126212240428	1
1	12205	582.952329934068	2
1	12227	584.560536619454	3
1	12249	585.73790247336	2
1	12256	586.218074903089	3
1	12282	587.97853794557	4
1	12290	588.5556876776	3
1	12303	589.13172748774	2
1	12311	589.586744630956	3
1	12315	589.762329156445	2
1	12328	590.726047734401	1
1	12333	591.244282914591	2
1	12366	593.004745957072	3
1	12395	594.600568696858	2
1	12396	594.612952642458	3
1	12415	595.915618016848	2
1	12418	595.9193775165	1
1	12423	596.270490926093	2
1	12434	596.875183738066	1
1	12446	597.662998941214	0
1	12450	598.030953968574	1
1	12453	598.175640134599	0
1	12483	599.63916065396	1
1	12487	599.723522633552	0
1	12508	601.296698937595	1
1	12513	601.791507570612	0
1	12537	603.057161980076	1
1	12543	603.298594071293	0
1	12569	604.665368665462	1
1	12591	606.322906949097	2
1	12597	606.707831403158	1
1	12618	608.083369991578	2
1	12632	608.399441232058	1
1	12635	608.421548007987	0
1	12647	609.691576676964	1
1	12673	611.349114960599	2
1	12677	611.624155235704	1
1	12689	612.468379666697	0
1	12707	613.10957800308	1
1	12724	614.717784688466	2
1	12756	616.28232760278	1
1	12757	616.375322972101	2
1	12763	616.54047906825	1
1	12780	618.135786014582	2
1	12790	618.667455881375	1
1	12813	619.743992699968	2
1	12816	619.937484550352	1
1	12826	620.723969427866	0
1	12830	621.401530983603	1
1	12834	621.456802900796	0
1	12867	623.161994026084	1
1	12884	623.790409818069	0
1	12895	624.77020071147	1
1	12899	625.060438487046	0
1	12921	626.427738995105	1
1	12944	627.837241476779	0
1	12947	628.188202037586	1
1	12959	628.913363754763	0
1	12972	629.796408722972	1
1	12996	630.969877301254	0
1	13009	631.453947006607	1
1	13012	631.799959995079	0
1	13028	633.214410049088	1
1	13059	634.822616734474	2
1	13066	635.306346360434	1
1	13077	636.092831237948	0
1	13082	636.480155018109	1
1	13100	636.922913931773	0
1	13112	638.24061806059	1
1	13139	639.848824745976	2
1	13149	640.03910270344	1
1	13154	640.429300297128	0
1	13173	641.506363029611	1
1	13196	643.206103286861	0
1	13197	643.266826072092	1
1	13204	643.43292771782	0
1	13230	644.875032757478	1
1	13250	646.338739111336	0
1	13251	646.532571041113	1
1	13262	646.8267527322	0
1	13279	648.293034083594	1
1	13294	648.892538308154	0
1	13311	649.90124076898	1
1	13320	650.22057774658	0
1	13334	651.558779052615	1
1	13359	653.319242095096	2
1	13363	653.452011160249	1
1	13369	653.61440276096	0
1	13390	654.927448780482	1
1	13406	655.871069728618	0
1	13417	656.584987064117	1
1	13429	657.414729678549	0
1	13441	658.345450106598	1
1	13448	658.574965096943	0
1	13472	659.953656791984	1
1	13499	661.611195075619	2
1	13525	663.3716581181	3
1	13548	664.261400118236	2
1	13551	664.979864803486	3
1	13575	666.637403087121	4
1	13582	666.830554858112	3
1	13614	668.397866129602	4
1	13624	668.820872970331	3
1	13633	670.006072814988	4
1	13640	670.409610052782	3
1	13644	670.58352783286	2
1	13649	670.620041226256	1
1	13666	671.663611098623	2
1	13688	672.783591488631	1
1	13689	673.424074141104	2
1	13698	673.943826907025	1
1	13719	675.03228082649	2
1	13728	675.536365058802	1
1	13749	676.689819110125	2
1	13752	677.0764627315	1
1	13773	678.450282152606	2
1	13788	679.066780843719	1
1	13793	679.630261928318	0
1	13796	680.058488837992	1
1	13805	680.142903121703	0
1	13836	681.716027121627	1
1	13843	682.199416668194	0
1	13858	683.476490164108	1
1	13887	685.084696849494	2
1	13897	685.369012723894	1
1	13915	686.742235133129	2
1	13924	687.322370604888	1
1	13927	687.55265290476	0
1	13943	688.50269817561	1
1	13963	690.110904860996	2
1	13997	691.768443144631	3
1	14009	692.340302602626	2
1	14020	693.528906187112	3
1	14031	694.34030293352	2
1	14036	694.435642653801	1
1	14054	695.137112872498	2
1	14081	696.794651156133	3
1	14094	697.7341279479	2
1	14111	698.555114198614	3
1	14122	699.558596590495	2
1	14136	700.163320884	3
1	14154	701.12795296228	2
1	14161	701.820859167635	3
1	14185	703.432442281382	2
1	14189	703.581322210116	3
1	14206	704.681550527189	2
1	14214	705.034308054078	1
1	14215	705.189528895502	2
1	14232	705.757672805173	1
1	14241	706.847067179137	2
1	14261	707.91560299104	1
1	14277	708.607530221618	2
1	14287	709.804504463883	1
1	14294	710.215736907004	2
1	14317	711.30942800542	1
1	14328	711.873275190639	2
1	14355	713.63373823312	3
1	14359	713.767222982183	2
1	14374	714.7032530198	1
1	14377	714.86695571917	0
1	14383	715.241944918506	1
1	14408	716.899483202141	2
1	14433	718.09707803418	1
1	14438	718.659946244622	2
1	14457	719.783279551716	1
1	14462	720.050412337271	0
1	14463	720.268152930008	1
1	14486	721.581226002418	0
1	14495	721.925691213643	1
1	14519	723.686154256124	2
1	14537	724.699603384262	1
1	14546	725.29436094151	2
1	14551	725.363134831226	1
1	14579	726.951899225145	2
1	14597	728.27855307732	1
1	14599	728.30600209844	0
1	14602	728.712362267626	1
1	14609	728.891456852366	0
1	14630	730.320568953012	1
1	14639	730.859801295258	0
1	14660	731.978107236647	1
1	14685	733.738570279128	2
1	14699	734.532251049354	1
1	14708	735.346776964514	2
1	14741	737.004315248149	3
1	14759	738.46002812046	2
1	14767	738.76477829063	3
1	14779	739.4485748819	2
1	14785	739.983596531122	1
1	14793	740.372984976016	2
1	14813	741.618350362031	1
1	14820	742.030523259651	2
1	14835	742.888379031008	1
1	14846	743.511918552262	0
1	14853	743.790986302132	1
1	14859	744.364898714446	0
1	14877	745.399192987518	1
1	14903	747.056731271153	2
1	14919	748.011332967702	1
1	14931	748.817194313634	2
1	14953	750.42540099902	3
1	14972	750.82214940221	2
1	14984	751.864258235419	1
1	14994	752.082939282655	2
1	15009	753.843402325136	3
1	15021	754.197546379538	2
1	15042	755.451609010522	3
1	15070	757.109147294157	4
1	15097	758.869610336638	5
1	15101	759.043725718604	4
1	15120	760.477817022024	5
1	15147	762.135355305659	6
1	15151	762.21680322112	5
1	15171	763.380194777784	4
1	15175	763.89581834814	5
1	15185	764.03019404463	4
1	15197	765.442611102106	3
1	15202	765.504025033526	4
1	15213	766.156997767517	3
1	15223	766.720478852116	2
1	15234	767.243011232622	3
1	15249	768.922026359642	4
1	15258	769.00445324988	3
1	15265	769.289633591992	2
1	15283	770.530233045028	3
1	15299	771.84343278881	2
1	15306	772.269219244124	3
1	15316	772.39827826426	2
1	15337	773.862841709722	1
1	15338	773.948234371144	2
1	15345	774.412587528686	1
1	15360	775.55644105653	2
1	15382	776.534750780862	1
1	15388	776.966386725504	0
1	15396	777.295427255626	1
1	15403	777.479027918889	0
1	15422	778.974442382646	1
1	15426	779.18592829302	0
1	15451	780.582649068032	1
1	15470	782.089340662198	0
1	15474	782.321635267128	1
1	15503	783.84498163081	0
1	15508	784.000650394148	1
1	15528	785.488578095899	0
1	15530	785.608857079534	1
1	15536	785.97357832178	0
1	15559	787.34784327863	1
1	15582	788.61181320736	0
1	15587	789.02685840565	1
1	15591	789.36740333616	0
1	15616	790.635065091036	1
1	15638	792.335248535586	0
1	15639	792.374051290132	1
1	15648	792.76122835054	0
1	15669	794.053066417152	1
1	15678	794.683534501898	0
1	15696	795.661273102538	1
1	15724	797.400259301634	2
1	15730	797.970843665665	1
1	15741	798.444460872452	0
1	15747	799.079274428654	1
1	15774	800.68748111404	2
1	15790	801.993765351846	1
1	15801	802.426467313136	2
1	15805	802.581156408974	1
1	15811	802.94270339368	0
1	15832	804.105482440156	1
1	15849	805.15031114885	0
1	15850	805.713689125542	1
1	15854	805.775674180654	0
1	15885	807.452675324638	1
1	15893	807.704110345668	0
1	15913	809.131690451658	1
1	15940	810.739897137044	2
1	15944	811.103347779369	1
1	15968	812.47888333614	2
1	15981	813.19343237009	1
1	15996	814.15789846316	2
1	16007	814.609734144724	1
1	16022	815.766105148546	2
1	16036	816.5180034512	1
1	16047	817.505091347642	2
1	16059	817.950018219056	1
1	16076	819.184106474662	2
1	16088	819.732688081418	1
1	16094	819.91182846558	0
1	16103	820.792313160048	1
1	16129	822.509491071151	0
1	16130	822.531299359144	1
1	16142	823.07297215575	0
1	16161	824.210314486164	1
1	16181	825.81852117155	2
1	16190	826.472209589451	1
1	16195	826.69947849434	0
1	16206	827.557507370646	1
1	16225	827.942403867728	0
1	16237	829.236522497666	1
1	16249	830.09330350872	0
1	16264	830.844729183052	1
1	16290	832.583715382148	2
1	16297	832.755398944539	1
1	16313	833.4871285231	0
1	16324	834.262730509168	1
1	16336	835.016597580446	0
1	16352	835.870937194554	1
1	16373	837.60992339365	2
1	16382	837.878352881233	1
1	16397	838.544919601586	0
1	16411	839.28893852067	1
1	16421	840.224503828194	0
1	16436	840.897145206056	1
1	16452	841.841071399533	0
1	16460	842.636131405152	1
1	16480	843.564787902526	0
1	16489	844.315146532172	1
1	16510	845.855150451534	0
1	16512	845.923353217558	1
1	16536	847.06242858062	0
1	16542	847.662339416654	1
1	16567	849.200383032605	0
1	16573	849.341354543674	1
1	16576	849.637059280342	0
1	16596	850.94956122906	1
1	16623	852.688547428156	2
1	16645	853.85007860938	1
1	16656	854.323336969299	0
1	16660	854.367562555176	1
1	16677	855.975769240562	2
1	16700	857.24390362376	1
1	16703	857.440346863004	0
1	16707	857.714755439658	1
1	16732	859.393770566678	2
1	16756	860.63772863814	1
1	16759	861.001977252064	2
1	16768	861.502804452484	1
1	16785	862.74096345116	2
1	16813	864.257520980238	1
1	16820	864.41997857818	2
1	16839	866.028185263566	3
1	16854	867.272994528096	2
1	16860	867.4253786669	1
1	16869	867.767171462662	2
1	16884	868.616076501397	1
1	16898	869.446186589682	2
1	16902	869.692198779381	1
1	16916	870.81920368128	0
1	16922	871.054393275068	1
1	16944	872.189318360642	0
1	16956	872.793379474164	1
1	16970	874.21302869566	0
1	16976	874.472394601184	1
1	17001	876.08060128657	2
1	17019	877.105642193188	1
1	17025	877.60685371004	0
1	17031	877.819587485666	1
1	17063	879.498602612686	2
1	17066	879.938106652769	1
1	17081	881.106809298072	2
1	17096	882.021966025734	1
1	17109	882.406304701274	0
1	17113	882.845795497168	1
1	17131	883.984938311479	0
1	17140	884.524810624188	1
1	17143	884.548419396078	0
1	17161	886.133017309574	1
1	17165	886.188213530082	0
1	17192	887.87200350867	1
1	17206	889.107892248173	0
1	17213	889.55101863569	1
1	17216	889.671373332772	0
1	17237	891.159225321076	1
1	17241	891.18215376756	0
1	17269	892.898211520172	1
1	17273	893.070610766473	0
1	17303	894.577226647192	1
1	17329	896.185433332578	2
1	17339	896.770937523372	1
1	17353	897.924419531674	2
1	17386	899.603434658694	3
1	17403	900.808675229978	2
1	17407	901.21164134408	3
1	17414	901.687261355918	2
1	17437	902.950627543176	3
1	17464	904.629642670196	4
1	17475	905.040235142854	3
1	17491	906.237849355582	4
1	17498	906.603585188464	3
1	17502	906.822905005216	2
1	17512	907.60938988273	1
1	17516	907.976835554678	2
1	17519	908.118906079926	1
1	17543	909.655850681698	2
1	17569	911.264057367084	3
1	17575	911.51990902101	2
1	17583	911.94585894191	1
1	17596	912.732343819424	0
1	17598	913.00304356618	1
1	17608	913.562426513249	0
1	17623	914.6820586932	1
1	17627	914.722661931643	0
1	17652	916.290265378586	1
1	17656	916.436232853556	0
1	17675	918.029251577682	1
1	17708	919.708266704702	2
1	17734	921.316473390088	3
1	17738	921.352556686102	2
1	17752	922.191766815298	1
1	17761	922.739367779822	0
1	17765	923.055459589184	1
1	17780	923.808334386637	0
1	17789	924.734474716204	1
1	17799	925.12040391136	0
1	17823	926.34268140159	1
1	17844	928.081667600686	2
1	17857	928.51422892574	1
1	17871	929.760682727706	2
1	17897	931.167646019709	1
1	17903	931.368889413092	2
1	17924	933.107875612188	3
1	17938	933.57792065091	2
1	17957	934.786890739208	3
1	17964	935.214477678419	2
1	17977	936.10152818374	1
1	17984	936.290599956403	0
1	17985	936.395097424594	1
1	18012	938.13408362369	2
1	18040	939.81309875071	3
1	18045	940.337431615113	2
1	18069	941.421305436096	3
1	18079	942.08952898326	2
1	18091	943.160291635192	3
1	18121	944.839306762212	4
1	18127	945.460385551807	3
1	18130	945.48335399764	2
1	18136	945.934175848832	1
1	18144	946.447513447598	2
1	18171	948.186499646694	3
1	18182	948.593021376282	2
1	18187	949.423104070107	1
1	18197	949.865514773714	2
1	18216	950.850499681378	1
1	18229	951.4737214591	2
1	18232	951.659461766485	1
1	18240	952.2710040264	0
1	18252	953.212707658196	1
1	18278	954.891722785216	2
1	18301	955.766823513924	1
1	18309	956.269774509794	0
1	18310	956.499929470602	1
1	18314	956.782415703179	0
1	18333	958.238915669698	1
1	18360	959.917930796718	2
1	18373	960.68314734647	1
1	18383	961.526137482104	2
1	18402	962.45247906954	1
1	18419	963.2651236812	2
1	18439	964.94413880822	3
1	18449	965.599471179016	2
1	18471	966.552345493606	3
1	18478	967.028323576567	2
1	18493	968.291331692702	3
1	18497	968.298352245544	2
1	18509	969.084837123058	1
1	18523	969.970346819722	2
1	18532	970.12907490065	1
1	18536	970.515795011562	0
1	18554	971.578553505108	1
1	18575	973.317539704204	2
1	18578	973.421306182238	1
1	18597	974.207791059752	0
1	18603	974.996554831224	1
1	18606	975.037873753577	0
1	18634	976.60476151661	1
1	18641	976.76159025657	0
1	18666	978.343747715706	1
1	18684	979.330744996446	0
1	18691	980.022762842726	1
1	18697	980.160827690271	0
1	18722	981.630969528112	1
1	18746	983.369955727208	2
1	18770	985.048970854228	3
1	18793	986.2092541702	2
1	18803	986.657177539614	3
1	18809	987.007498129958	2
1	18828	988.39616373871	3
1	18848	989.576652869834	2
1	18852	989.60307918458	1
1	18860	990.07517886573	2
1	18868	990.181090341746	1
1	18887	991.683385551116	2
1	18901	992.643093260037	1
1	18913	993.422371750212	2
1	18920	993.913121929014	1
1	18938	995.101386877232	2
1	18968	996.709593562618	3
1	18972	997.253406003346	2
1	18988	998.448579761714	3
1	19014	1000.013738006838	2
1	19015	1000.127594888734	3
1	19039	1001.73580157412	4
1	19061	1002.889001133425	3
1	19072	1003.1783792421	2
1	19073	1003.474787773216	3
1	19096	1004.930061839384	2
1	19102	1005.153802900236	3
1	19128	1006.762009585622	4
1	19133	1006.935832792135	3
1	19138	1007.499313876734	2
1	19152	1008.500995784718	3
1	19173	1009.84638567193	2
1	19181	1010.180010911738	3
1	19207	1011.788217597124	4
1	19221	1012.622267813428	3
1	19226	1013.134909006813	2
1	19233	1013.52720379622	3
1	19256	1014.762709504476	2
1	19260	1015.191422553304	1
1	19262	1015.20621892324	2
1	19277	1016.021505247129	1
1	19290	1016.814425608626	2
1	19299	1017.745221750122	1
1	19319	1018.553411807722	2
1	19340	1019.679033337022	1
1	19349	1020.232426934742	2
1	19352	1020.314376489998	1
1	19371	1021.840633620128	2
1	19396	1023.380816880201	1
1	19400	1023.579619819224	2
1	19418	1024.650845549178	1
1	19422	1025.258634946244	2
1	19452	1026.86684163163	3
1	19475	1027.99112962351	2
1	19479	1028.605827830726	3
1	19497	1029.511681002114	2
1	19504	1030.284842957746	3
1	19518	1030.560284363386	2
1	19525	1031.390367057211	1
1	19529	1031.893049643132	2
1	19545	1032.550602475605	1
1	19561	1033.632035842228	2
1	19565	1033.72280437152	1
1	19575	1034.42800483466	0
1	19589	1035.311050969248	1
1	19595	1035.68323830008	0
1	19612	1036.919257654634	1
1	19624	1037.673556412299	0
1	19638	1038.65824385373	1
1	19666	1040.33725898075	2
1	19695	1041.945465666136	3
1	19719	1043.684451865232	4
1	19725	1043.90427941466	3
1	19744	1045.363466992252	4
1	19762	1045.929146173468	3
1	19775	1046.971673677638	4
1	19786	1047.919464285687	3
1	19800	1048.482945370286	2
1	19801	1048.710659876734	3
1	19829	1050.389675003754	4
1	19857	1051.99788168914	5
1	19881	1053.736867888236	6
1	19898	1054.323523078886	5
1	19913	1055.415883015256	6
1	19937	1057.005136740681	5
1	19938	1057.024089700642	6
1	19972	1059.00962399739	5
1	19975	1059.349731090388	6
1	20000	1060.87340448656	5
1	20009	1061.633753928834	4
1	20019	1062.031344752183	5
1	20022	1062.128090677375	4
1	20050	1064.035832008892	5
1	20056	1064.364448373753	4
1	20068	1065.162075949974	3
1	20073	1065.63447704273	2
1	20080	1065.899612498062	3
1	20087	1066.420961920244	2
1	20097	1067.057552763685	3
1	20130	1069.062040020394	4
1	20158	1070.925820509564	5
1	20177	1072.083760775187	6
1	20201	1073.534233969157	5
1	20212	1074.088248031896	6
1	20215	1074.097715053756	5
1	20218	1074.44870454408	4
1	20223	1074.610356247141	3
1	20242	1075.952028521066	4
1	20246	1076.25421562873	3
1	20266	1077.496952487457	2
1	20282	1078.560441980659	3
1	20285	1078.657187905851	2
1	20294	1079.123923065258	3
1	20298	1079.22066899045	2
1	20309	1079.78253764987	1
1	20325	1080.978236532568	2
1	20338	1081.789823730326	1
1	20366	1083.586649992161	2
1	20371	1083.59124316012	1
1	20376	1084.15013107676	2
1	20382	1084.343622927144	1
1	20388	1084.63017958722	0
1	20407	1086.00444454407	1
1	20411	1086.126292789506	0
1	20452	1088.612858003663	1
1	20459	1089.176339088262	2
1	20470	1089.979218057223	1
1	20492	1091.030652555572	2
1	20501	1091.41782961598	1
1	20508	1092.035731603714	0
1	20526	1093.639066015165	1
1	20540	1094.202547099764	2
1	20543	1094.402999349766	1
1	20562	1095.102171993917	0
1	20574	1096.056860567074	1
1	20600	1098.184908178574	0
1	20616	1098.665274026667	1
1	20622	1099.149003652627	0
1	20623	1099.228755111266	1
1	20631	1099.712484737226	0
1	20650	1101.083068578576	1
1	20659	1101.495154599588	0
1	20692	1103.691482038169	1
1	20700	1104.254963122768	2
1	20714	1104.9931296735	1
1	20732	1106.109276590078	2
1	20741	1106.618108536282	1
1	20754	1107.404593413796	0
1	20771	1108.717690049671	1
1	20783	1109.28117113427	2
1	20787	1109.394911526015	1
1	20803	1109.958392610614	0
1	20810	1111.13548460158	1
1	20825	1111.741062472976	0
1	20855	1113.743898061173	1
1	20863	1114.307379145772	2
1	20873	1114.517865462709	1
1	20887	1115.17460471664	0
1	20894	1116.161692613082	1
1	20900	1116.33369189961	0
1	20940	1118.770106072675	1
1	20947	1119.333587157274	2
1	20974	1121.187900624584	3
1	20989	1121.9622547454	2
1	20993	1121.986970346364	1
1	21001	1122.773455223878	0
1	21021	1123.796314084177	1
1	21025	1124.359795168776	2
1	21028	1124.763773336097	1
1	21055	1126.214108636086	2
1	21066	1127.109924283058	1
1	21086	1127.838157653034	0
1	21100	1128.822522095679	1
1	21108	1129.386003180278	2
1	21117	1129.886727272791	1
1	21135	1130.962849550775	0
1	21136	1131.240316647588	1
1	21171	1133.019363097266	0
1	21181	1133.848730107181	1
1	21189	1134.41221119178	2
1	21192	1134.736062428314	1
1	21197	1135.009681209485	0
1	21219	1136.26652465909	1
1	21245	1137.670805318126	0
1	21262	1138.874938118683	1
1	21275	1139.438419203282	2
1	21302	1141.292732670592	3
1	21325	1142.587129150672	2
1	21344	1143.901146130185	3
1	21354	1144.464627214784	4
1	21372	1145.574615299402	3
1	21381	1145.819070167472	2
1	21388	1146.318940682094	3
1	21406	1147.503452983218	2
1	21428	1148.927354141687	3
1	21440	1149.35652412821	2
1	21442	1149.490835226286	3
1	21464	1150.942024104166	2
1	21466	1151.345148693596	3
1	21472	1151.454665297551	2
1	21489	1152.419776815764	1
1	21494	1152.724693966528	0
1	21508	1153.953562153189	1
1	21521	1154.517043237788	2
1	21543	1155.9005048892	1
1	21551	1156.371356705098	2
1	21567	1157.33610064831	1
1	21587	1158.979770164691	2
1	21606	1159.54325124929	3
1	21620	1160.624450892955	2
1	21627	1161.3975647166	3
1	21653	1162.68815491796	2
1	21662	1162.970601839916	1
1	21669	1163.75708671743	0
1	21673	1164.005978176193	1
1	21681	1164.569459260792	2
1	21704	1166.08197993234	1
1	21706	1166.310885914248	0
1	21707	1166.423772728102	1
1	21738	1168.09355577661	0
1	21748	1169.032186187695	1
1	21764	1169.595667272294	2
1	21771	1169.710123347949	1
1	21792	1171.287216678054	0
1	21796	1171.449980739604	1
1	21806	1172.085072145948	0
1	21835	1174.058394199197	1
1	21843	1174.621875283796	2
1	21872	1176.476188751106	3
1	21876	1176.556793787636	2
1	21884	1177.001395978494	1
1	21886	1177.069434981021	0
1	21919	1179.084602210699	1
1	21922	1179.125948527512	0
1	21928	1179.648083295298	1
1	21934	1179.956031221337	0
1	21951	1181.502396762608	1
1	21970	1182.192388917715	0
1	21995	1184.110810222201	1
1	21999	1184.248902464206	0
1	22008	1184.6742913068	1
1	22020	1185.90767837795	0
1	22039	1186.52860477411	1
1	22047	1186.802701661024	0
1	22070	1189.137018233703	1
1	22085	1189.43600039909	0
1	22090	1189.700499318302	1
1	22101	1190.201939094725	0
1	22115	1191.554812785612	1
1	22123	1191.750367476132	0
1	22163	1194.163226245205	1
1	22173	1194.726707329804	2
1	22179	1195.324893031419	1
1	22193	1196.581020797114	2
1	22206	1196.666691308678	1
1	22216	1197.048609534412	0
1	22235	1199.189434256707	1
1	22250	1199.752915341306	2
1	22257	1200.02023007614	1
1	22259	1200.447846968113	0
1	22282	1201.607228808616	1
1	22314	1203.41405509052	0
1	22324	1204.215642268209	1
1	22336	1204.740718210982	0
1	22337	1204.779123352808	1
1	22357	1206.49933897377	0
1	22358	1206.633436820118	1
1	22370	1206.8078801049	0
1	22403	1209.241850279711	1
1	22411	1209.80533136431	2
1	22414	1209.863672147676	1
1	22449	1211.65964483162	2
1	22454	1211.853990259895	1
1	22480	1213.59553013366	0
1	22487	1214.268058291213	1
1	22503	1214.831539375812	2
1	22532	1216.685852843122	3
1	22574	1219.294266302715	4
1	22583	1219.857747387314	5
1	22587	1220.109580021064	4
1	22609	1221.248310471408	3
1	22613	1221.712060854624	4
1	22622	1222.099898133283	3
1	22626	1222.45883262769	2
1	22631	1222.663379217882	1
1	22652	1223.7770051768	0
1	22658	1224.320474314217	1
1	22666	1224.883955398816	2
1	22672	1225.232533957758	1
1	22684	1225.98715464883	0
1	22696	1226.738268866126	1
1	22716	1227.786333154576	0
1	22731	1229.346682325719	1
1	22747	1229.769063477638	0
1	22749	1229.910163410318	1
1	22770	1231.0809581365	0
1	22779	1231.764476877628	1
1	22793	1232.90928709127	0
1	22817	1234.372890337221	1
1	22830	1234.93637142182	2
1	22835	1235.478441831146	1
1	22844	1235.997281969046	0
1	22851	1236.79068488913	1
1	22857	1237.079294327586	0
1	22897	1239.399098348723	1
1	22903	1239.814910890326	0
1	22904	1239.962579433322	1
1	22910	1240.60139576784	0
1	22940	1241.816892900632	1
1	22967	1243.667836158043	0
1	22979	1244.425306360225	1
1	22993	1244.988787444824	2
1	23006	1245.829929634138	1
1	23017	1246.554432398359	0
1	23022	1246.843100912134	1
1	23032	1247.53378027746	0
1	23059	1249.451514371727	1
1	23070	1250.014995456326	2
1	23094	1250.92760529184	1
1	23104	1251.699756027482	0
1	23106	1251.869308923636	1
1	23128	1253.401102838046	0
1	23143	1254.477722383229	1
1	23160	1255.041203467828	2
1	23164	1255.183772700408	1
1	23166	1255.228078048622	0
1	23186	1256.895516935138	1
1	23200	1257.7152553206	0
1	23224	1259.503930394731	1
1	23238	1260.06741147933	2
1	23269	1261.92172494664	3
1	23292	1263.647010711434	2
1	23306	1264.530138406233	3
1	23318	1265.093619490832	4
1	23328	1265.495224964322	3
1	23345	1266.947932958142	4
1	23391	1269.556346417735	5
1	23403	1270.119827502334	6
1	23407	1270.411548796868	5
1	23412	1270.55263451049	4
1	23423	1271.29055537812	3
1	23431	1271.974140969644	4
1	23434	1272.169202081829	3
1	23472	1274.582554429237	4
1	23488	1275.43775680837	5
1	23507	1276.462073324698	4
1	23511	1277.000348981146	5
1	23514	1277.158770598466	4
1	23555	1279.015872521516	3
1	23558	1279.608762440739	4
1	23569	1280.463964819872	5
1	23580	1280.940679427274	4
1	23589	1281.47203042126	3
1	23594	1281.585027261392	2
1	23600	1282.026556992648	3
1	23635	1284.634970452241	4
1	23642	1284.86585543564	3
1	23651	1285.160520294506	2
1	23657	1285.490172831374	3
1	23661	1285.921496320572	2
1	23677	1287.05276500415	3
1	23686	1287.538063891911	2
1	23702	1288.698299310305	1
1	23718	1289.661178463743	2
1	23724	1290.076844127052	1
1	23733	1290.516380842876	2
1	23747	1291.6535054644	1
1	23752	1291.83093513478	0
1	23759	1292.078973015652	1
1	23795	1294.687386475245	2
1	23801	1294.897375524983	1
1	23817	1295.542588854378	2
1	23821	1295.56114112717	1
1	23841	1297.105181027154	2
1	23861	1298.44115549316	1
1	23867	1298.944207183693	0
1	23880	1299.713594486747	1
1	23890	1300.020329461677	0
1	23897	1300.56879686588	1
1	23917	1301.83498050754	0
1	23920	1302.131389038656	1
1	23938	1302.906925701993	0
1	23954	1304.739802498249	1
1	23958	1304.82581562469	0
1	23975	1305.595004877382	1
1	23989	1306.399693998258	0
1	24002	1307.157597050158	1
1	24015	1308.029879638687	0
1	24042	1309.766010509751	1
1	24064	1310.621212888884	2
1	24072	1311.536266004042	1
1	24082	1312.18380506166	2
1	24086	1312.322750881556	1
1	24124	1314.658463289782	0
1	24128	1314.792218521253	1
1	24144	1315.647420900386	2
1	24160	1316.659219940736	1
1	24164	1317.210013073162	2
1	24209	1319.574787122328	1
1	24210	1319.818426532755	2
1	24213	1319.999504015068	1
1	24222	1320.673628911888	2
1	24247	1322.236221084664	3
1	24255	1322.568658754944	2
1	24282	1324.491110954874	1
1	24284	1324.558976867163	0
1	24288	1324.844634544257	1
1	24304	1325.5917556082	0
1	24307	1325.69983692339	1
1	24326	1326.905127814124	0
1	24328	1327.262429096166	1
1	24347	1328.521695385463	0
1	24371	1329.870842555759	1
1	24384	1330.726044934892	2
1	24388	1330.758053081841	1
1	24405	1332.288637107668	2
1	24410	1332.37940563696	1
1	24415	1332.814566628332	0
1	24451	1334.897050567261	1
1	24454	1335.36836582515	0
1	24462	1335.752252946394	1
1	24471	1335.881007018535	0
1	24487	1337.31484511917	1
1	24518	1339.240082452512	0
1	24527	1339.923258578763	1
1	24531	1339.927838677245	0
1	24547	1340.778460957896	1
1	24550	1341.003960955229	0
1	24566	1342.341053130672	1
1	24609	1344.949466590265	2
1	24613	1345.050792613939	1
1	24620	1345.614273698538	0
1	24624	1345.804668969398	1
1	24650	1347.367261142174	2
1	24682	1349.34853070886	1
1	24686	1349.975674601767	2
1	24710	1350.737227635232	1
1	24711	1350.8308769809	2
1	24733	1352.393469153676	3
1	24736	1352.519897497594	2
1	24739	1352.74235572324	1
1	24760	1354.042987926754	0
1	24772	1355.001882613269	1
1	24789	1355.857084992402	2
1	24792	1355.860181571926	1
1	24815	1357.419677165178	2
1	24821	1357.642851434288	1
1	24839	1358.905377782696	0
1	24857	1360.028090624771	1
1	24871	1360.883293003904	2
1	24886	1361.353218776702	1
1	24889	1361.495776702005	0
1	24898	1362.44588517668	1
1	24901	1362.765805370982	0
1	24943	1365.054298636273	1
1	24955	1365.909501015406	2
1	24966	1366.31765578076	1
1	24984	1367.472093188182	2
1	24999	1368.738025447788	1
1	25022	1370.080506647775	2
1	25039	1370.935709026908	3
1	25048	1371.741684575393	2
1	25061	1372.498301199684	3
1	25065	1373.01171324437	2
1	25108	1375.106714659277	3
1	25116	1375.96191703841	4
1	25120	1375.973680476598	3
1	25130	1376.4991308239	2
1	25145	1377.524509211186	3
1	25167	1378.57067311288	2
1	25177	1379.502002497738	1
1	25189	1379.89295583828	0
1	25190	1380.132922670779	1
1	25206	1380.988125049912	2
1	25228	1382.550717222688	3
1	25247	1383.486996945426	2
1	25252	1384.044105995272	1
1	25268	1385.159130682281	2
1	25278	1386.014333061414	3
1	25281	1386.034424107491	2
1	25287	1386.59790519209	1
1	25302	1387.57692523419	2
1	25347	1390.185338693783	3
1	25361	1391.040541072916	4
1	25385	1392.603133245692	5
1	25401	1393.319644610518	4
1	25404	1393.4682558958	3
1	25413	1394.122464197634	2
1	25432	1395.211546705285	3
1	25446	1396.066749084418	4
1	25450	1396.280331980879	3
1	25473	1397.629341257194	4
1	25489	1398.235968443064	3
1	25497	1398.62648292784	2
1	25509	1400.237754716787	3
1	25515	1400.243050499179	2
1	25518	1400.25590592456	1
1	25531	1401.09295709592	2
1	25558	1402.655549268696	3
1	25563	1403.15229227561	2
1	25601	1405.263962728289	3
1	25605	1405.366004435873	2
1	25612	1406.119165107422	3
1	25628	1407.04355595332	2
1	25630	1407.089720938866	1
1	25639	1407.681757280198	2
1	25646	1408.068616108156	1
1	25655	1408.74292589753	0
1	25677	1410.290170739791	1
1	25684	1410.4373809677	0
1	25692	1411.145373118924	1
1	25698	1411.649193790961	0
1	25716	1412.7079652917	1
1	25719	1412.725316068945	0
1	25761	1415.316378751293	1
1	25772	1416.171581130426	2
1	25792	1417.22503099646	1
1	25798	1417.734173303202	2
1	25801	1417.848270005639	1
1	25804	1417.901263773248	0
1	25841	1420.342586762795	1
1	25845	1420.61885601084	0
1	25854	1421.197789141928	1
1	25861	1421.895101664349	0
1	25879	1422.760381314704	1
1	25884	1422.817587605794	0
1	25923	1425.368794774297	1
1	25930	1425.857820182649	0
1	25936	1426.22399715343	1
1	25964	1427.73391143834	0
1	25965	1427.786589326206	1
1	25987	1429.364206548004	0
1	26003	1430.395002785799	1
1	26013	1430.980774119343	0
1	26014	1431.250205164932	1
1	26027	1432.141009537737	0
1	26038	1432.812797337708	1
1	26065	1434.19415606836	0
1	26082	1435.421210797301	1
1	26098	1436.276413176434	2
1	26115	1437.58798108274	1
1	26127	1437.83900534921	2
1	26131	1437.983849297322	1
1	26163	1440.447418808803	2
1	26177	1440.98180609712	1
1	26184	1441.302621187936	2
1	26205	1442.386917411125	1
1	26210	1442.482882935978	0
1	26214	1442.865213360712	1
1	26250	1445.473626820305	2
1	26254	1445.5195532356	1
1	26266	1446.328829199438	2
1	26283	1447.399206768524	1
1	26285	1447.509871347819	0
1	26292	1447.891421372214	1
1	26329	1450.499834831807	2
1	26335	1450.642507172294	1
1	26341	1451.16328114026	0
1	26342	1451.35503721094	1
1	26365	1452.632825284513	0
1	26377	1452.917629383716	1
1	26381	1453.196306369112	0
1	26409	1455.526042843309	1
1	26425	1456.381245222442	2
1	26445	1457.231854433616	1
1	26453	1457.943837395218	2
1	26457	1457.95093116902	1
1	26468	1458.831901499191	0
1	26493	1460.552250854811	1
1	26509	1461.3447561834	0
1	26510	1461.407453233944	1
1	26532	1462.148178266162	0
1	26541	1462.97004540672	1
1	26548	1463.4422142425	0
1	26581	1465.578458866313	1
1	26587	1466.011368982376	0
1	26595	1466.433661245446	1
1	26606	1467.064502098708	0
1	26621	1467.996253418222	1
1	26663	1470.604666877815	2
1	26670	1471.13432291907	1
1	26674	1471.459869256948	2
1	26684	1471.964405612895	1
1	26702	1473.022461429724	2
1	26706	1473.124641031289	1
1	26724	1474.200763309273	0
1	26747	1475.630874889317	1
1	26755	1476.48607726845	2
1	26770	1476.8971497638	1
1	26782	1478.048669441226	2
1	26795	1478.31691237587	1
1	26801	1478.811076052582	0
1	26822	1480.657082900819	1
1	26838	1481.380230792458	0
1	26839	1481.512285279952	1
1	26850	1481.813473596346	0
1	26869	1483.074877452728	1
1	26894	1484.446671182661	0
1	26912	1485.683290912321	1
1	26923	1486.538493291454	2
1	26941	1487.333267422977	1
1	26950	1488.10108546423	2
1	26992	1490.709498923823	3
1	26996	1490.839653788332	2
1	27005	1491.564701302956	3
1	27011	1491.646121261438	2
1	27021	1492.456221359671	1
1	27036	1493.127293475732	2
1	27039	1493.616456778065	1
1	27069	1495.735706935325	2
1	27087	1496.590909314458	3
1	27118	1498.153501487234	4
1	27144	1500.247604925714	3
1	27156	1500.761914946827	4
1	27160	1501.08556166172	3
1	27167	1501.61711732596	4
1	27195	1503.179709498736	5
1	27203	1503.775926946854	4
1	27206	1503.862364651453	3
1	27230	1505.46448137034	2
1	27234	1505.788122958329	3
1	27243	1506.208515598414	2
1	27246	1506.395092759076	1
1	27252	1506.643325337462	2
1	27258	1506.995000475928	1
1	27276	1508.205917510238	2
1	27285	1508.85830638472	1
1	27317	1510.814330969831	2
1	27330	1511.311416591622	1
1	27333	1511.669533348964	2
1	27340	1512.117954412622	1
1	27353	1512.948037106447	0
1	27356	1513.23212552174	1
1	27369	1514.108272524841	0
1	27399	1515.840538981333	1
1	27407	1516.695741360466	2
1	27435	1518.258333533242	3
1	27453	1519.231226461535	2
1	27477	1520.866746992835	3
1	27492	1521.721949371968	4
1	27511	1522.43360644224	3
1	27520	1523.284541544744	4
1	27530	1524.354180398229	3
1	27547	1524.917661482828	2
1	27560	1525.82743145662	1
1	27564	1525.892955004337	2
1	27579	1526.70033134519	1
1	27580	1526.74815738347	2
1	27594	1528.310749556246	3
1	27621	1529.488528325506	2
1	27641	1530.919163015839	3
1	27645	1530.976711921806	2
1	27651	1531.774365394972	3
1	27666	1532.609770159398	2
1	27669	1532.61508148538	1
1	27677	1533.336957567748	2
1	27714	1535.676210549601	1
1	27721	1535.945371027341	2
1	27737	1536.798759175454	1
1	27739	1536.800573406474	2
1	27763	1538.36316557925	3
1	27792	1540.327081196594	2
1	27800	1540.799164486295	1
1	27808	1540.971579038843	2
1	27821	1541.826781417976	3
1	27840	1542.79655652852	2
1	27842	1542.855678032786	1
1	27845	1543.389373590752	2
1	27851	1543.685760726611	1
1	27882	1545.725683419444	0
1	27888	1545.997787050345	1
1	27895	1546.1903815429	0
1	27896	1546.852989429478	1
1	27916	1547.637312046542	0
1	27925	1548.415581602254	1
1	27944	1549.58420655728	0
1	27967	1551.023995061847	1
1	27988	1551.87919744098	2
1	28011	1553.441789613756	3
1	28020	1553.931668599999	2
1	28045	1555.558331084536	1
1	28051	1556.050203073349	2
1	28069	1556.905405452482	3
1	28089	1558.467997625258	4
1	28104	1559.054622536693	3
1	28109	1559.76568160042	2
1	28135	1561.076411084851	3
1	28151	1561.931613463984	4
1	28163	1562.561008902048	3
1	28177	1563.49420563676	4
1	28218	1566.102619096353	5
1	28236	1566.957821475486	6
1	28256	1568.520413648262	5
1	28266	1569.300530410081	4
1	28281	1569.94715664356	3
1	28290	1570.307302582174	2
1	28301	1571.128827107855	3
1	28324	1572.806916775436	2
1	28333	1573.546621659764	3
1	28352	1574.423484346775	2
1	28364	1575.22362641472	1
1	28371	1575.583719765169	0
1	28372	1576.155035119357	1
1	28387	1576.73480667232	0
1	28411	1578.572829671266	1
1	28445	1580.139950247266	0
1	28455	1581.181243130859	1
1	28487	1583.052824648824	0
1	28491	1583.599037682768	1
1	28515	1584.669392220163	0
1	28537	1586.207451142361	1
1	28553	1587.026947034322	0
1	28574	1588.62524569427	1
1	28600	1589.972597912358	0
1	28614	1591.233659153863	1
1	28620	1591.49869714623	0
1	28653	1593.651453705772	1
1	28677	1594.888921744904	0
1	28694	1596.259867165365	1
1	28713	1597.0977567586	0
1	28735	1598.677661717274	1
1	28752	1599.80524557745	0
1	28776	1601.286075176867	1
1	28789	1602.036812263328	0
1	28812	1603.703869728776	1
1	28824	1604.331125273114	0
1	28855	1606.312283188369	1
1	28872	1607.27923180174	0
1	28894	1608.730077740278	1
1	28905	1609.637893242542	0
1	28935	1611.338491199871	1
1	28972	1613.75628575178	2
1	28979	1614.0668818305	1
1	28988	1614.554217075088	0
1	29010	1616.364699211373	1
1	29018	1616.567351258721	0
1	29050	1618.782493763282	1
1	29056	1618.913502205682	0
1	29095	1621.390907222875	1
1	29101	1621.690305195415	0
1	29126	1623.808701774784	1
1	29129	1624.036456142376	0
1	29170	1626.417115234377	1
1	29197	1628.010578527874	0
1	29205	1628.834909786286	1
1	29208	1629.15941007907	0
1	29246	1631.443323245879	1
1	29271	1633.133532464568	0
1	29286	1633.861117797788	1
1	29291	1634.219512405272	0
1	29325	1636.469531257381	1
1	29337	1637.059167005497	0
1	29365	1638.88732580929	1
1	29369	1639.135836237818	0
1	29408	1641.495739268883	1
1	29426	1642.670313095866	0
1	29447	1643.913533820792	1
1	29463	1644.528271889152	0
1	29491	1646.521947280385	1
1	29514	1648.0051319743	0
1	29529	1648.939741832294	1
1	29540	1649.651225825846	0
1	29569	1651.548155291887	1
1	29585	1652.428028815579	0
1	29612	1653.965949843796	1
1	29627	1654.77417976254	0
1	29652	1656.574363303389	1
1	29665	1657.550982752273	0
1	29689	1658.992157855298	1
1	29699	1659.897133699234	0
1	29731	1661.600571314891	1
1	29750	1663.512259503656	0
1	29762	1664.0183658668	1
1	29783	1665.020087635928	0
1	29805	1666.626779326393	1
1	29848	1669.044573878302	2
1	29876	1670.929526450136	1
1	29884	1671.652987337895	2
1	29891	1671.76190707496	1
1	29896	1671.911236495658	0
1	29925	1674.070781889804	1
1	29929	1674.11716395812	0
1	29967	1676.679195349397	1
1	29994	1678.466426898186	0
1	30003	1679.096989901306	1
1	30048	1681.705403360899	2
1	30055	1682.005517017349	1
1	30066	1683.003376174414	0
1	30086	1684.123197912808	1
1	30091	1684.363071831508	0
1	30128	1686.731611372401	1
1	30147	1688.288706372437	0
1	30166	1689.14940592431	1
1	30189	1690.634857319398	0
1	30202	1691.757819383903	1
1	30227	1693.215398395824	0
1	30241	1694.175613935812	1
1	30248	1694.608979704896	0
1	30284	1696.784027395405	1
1	30299	1697.62383787431	0
1	30327	1699.201821947314	1
1	30365	1701.810235406907	2
1	30378	1702.30633220438	1
1	30383	1702.497332764125	0
1	30407	1704.228029958816	1
1	30413	1704.495890997208	0
1	30451	1706.836443418409	1
1	30463	1707.620286700819	0
1	30488	1709.254237970318	1
1	30501	1709.977841514978	0
1	30525	1711.862651429911	1
1	30528	1711.913157943688	0
1	30562	1714.28044598182	1
1	30572	1714.741798870596	0
1	30602	1716.888859441413	1
1	30611	1717.036111880382	0
1	30644	1719.306653993322	1
1	30652	1719.86475280729	0
1	30678	1721.915067452915	1
1	30685	1722.159065817076	0
1	30719	1724.332862004824	1
1	30752	1726.06310730504	0
1	30766	1726.941275464417	1
1	30785	1728.112102447595	0
1	30801	1729.359070016326	1
1	30822	1730.110660680678	0
1	30839	1731.967483475919	1
1	30847	1732.404973690464	0
1	30885	1734.385278027828	1
1	30894	1735.233614617372	0
1	30919	1736.993691487421	1
1	30926	1737.462312888738	0
1	30953	1739.41148603933	1
1	30966	1739.63840736256	0
1	31002	1742.019899498923	1
1	31007	1742.378636721284	0
1	31040	1744.437694050832	1
1	31059	1745.47952249076	0
1	31080	1747.046107510425	1
1	31087	1747.29496055383	0
1	31125	1749.463902062334	1
1	31134	1749.8198824057	0
1	31161	1752.072315521927	1
1	31164	1752.110304559726	0
1	31205	1754.490110073836	1
1	31221	1755.725430364148	0
1	31248	1757.098523533429	1
1	31252	1757.127608218922	0
1	31278	1759.516318085338	1
1	31284	1759.634006695034	0
1	31324	1762.124731544931	1
1	31348	1763.415915523842	0
1	31364	1764.54252609684	1
1	31395	1766.7890074776	0
1	31409	1767.150939556433	1
1	31415	1767.479166369808	0
1	31438	1769.568734108342	1
1	31457	1770.255969359541	0
1	31487	1772.177147567935	1
1	31524	1774.594942119844	2
1	31554	1776.792903549106	1
1	31560	1777.203355579437	2
1	31579	1778.036377223738	1
1	31595	1779.621150131346	2
1	31615	1780.501877232929	1
1	31629	1781.699196628694	0
1	31641	1782.229563590939	1
1	31645	1782.84802817989	0
1	31676	1784.647358142848	1
1	31685	1785.346608073686	0
1	31718	1787.255771602441	1
1	31760	1789.67356615435	2
1	31775	1790.747785106317	1
1	31794	1792.281979613943	2
1	31804	1792.656838923634	1
1	31810	1793.093936053278	0
1	31837	1794.699774165852	1
1	31849	1795.870739043011	0
1	31876	1797.308187625445	1
1	31897	1798.216889989972	0
1	31911	1799.725982177354	1
1	31920	1799.967069773582	0
2	0	0	0
2	201	6.558032913238	1
2	208	7.03719389915	2
2	252	9.485213038695	3
2	254	9.55353112681	4
2	359	13.330296690215	5
2	2441	69.796592995252	6
2	2609	75.81184467767	7
2	2611	75.854741667146	8
2	2667	77.990534599969	9
2	2669	78.024465300168	10
2	2716	80.11492070938	11
2	2828	84.337343425645	12
2	2830	84.556986234594	13
2	2964	90.447559588481	14
2	3498	115.514984864382	15
2	3644	122.512054651434	16
2	3697	125.066888657426	17
2	3705	125.567400887386	18
2	3708	125.681381318848	19
2	3893	134.73651535675	20
2	3913	135.61981691039	21
2	3942	137.228023595776	22
2	3945	137.391245663885	23
2	4002	140.04597597102	24
2	4006	140.54316972386	25
2	4008	140.646024921892	26
2	4169	148.710175558422	27
2	4208	150.66489719956	28
2	4212	150.698440944896	29
2	4373	158.990393925419	30
2	4427	161.53115196333	31
2	4439	162.183559028073	32
2	4479	164.056475848889	33
2	4522	166.45421819939	34
2	4525	166.59327904237	35
2	4530	166.67468685129	36
2	4722	176.186439248499	37
2	4737	177.21220027091	38
2	4841	182.52166088518	39
2	4873	184.121433982929	40
2	4925	186.717069229319	41
2	4942	187.633283359636	42
2	5217	201.104773035125	43
2	5220	201.106666829287	44
2	5249	202.603709437026	45
2	5251	202.623798192334	46
2	5745	228.053433768589	47
2	5784	229.9016456619	48
2	5796	230.659232777275	49
2	5836	232.725975814314	50
2	5845	232.961536720745	51
2	5895	235.61626702788	52
2	5940	238.212763904085	53
2	5944	238.270997335015	54
2	5961	239.017711488376	55
2	6031	242.778391837318	56
2	6040	243.023859845979	57
2	6042	243.368552680394	58
2	6045	243.575744401614	59
2	6048	243.580457949285	60
2	6075	244.520902453718	61
2	6186	250.509072884674	62
2	6188	251.222601174936	63
2	6234	252.830807860322	64
2	6425	262.890587723895	65
2	6443	263.982456354325	66
2	6475	265.479498962064	67
2	6489	266.365908967804	68
2	6534	268.426888411325	69
2	6539	269.18369051496	70
2	6590	271.46766939302	71
2	6623	272.964712000759	72
2	6692	276.73722164177	73
2	6723	278.09195194204	74
2	6737	278.952882431715	75
2	6752	279.75718510154	76
2	6843	284.598040620756	77
2	6851	284.941052862671	78
2	6886	286.506305795473	79
2	6915	288.014263940836	80
2	6918	288.067518331985	81
2	6933	289.156073533994	82
2	7034	294.02033378485	83
2	7036	294.059836922283	84
2	7043	294.698010235973	85
2	7134	299.3978150222	86
2	7141	299.724218247475	87
2	7238	304.63925501339	88
2	7293	307.396691978756	89
2	7476	316.720430302713	90
2	7635	325.0783718624	91
2	7651	325.87709747047	92
2	7704	328.355288487102	93
2	7714	328.855137425805	94
2	7732	329.881466316487	95
2	7736	330.178369753136	96
2	7765	331.520466922408	97
2	7768	331.641929358968	98
2	7832	334.736402666374	99
2	7841	335.604258119738	100
2	7913	339.294435579612	101
2	7933	340.331629349014	102
2	8081	348.410501406088	103
2	8114	350.234165591882	104
2	8142	351.746761404976	105
2	8161	352.42440054182	106
2	8170	353.354968090362	107
2	8211	355.302055426404	108
2	8234	356.799098034143	109
2	8261	358.264851500168	110
2	8264	358.296140641882	111
2	8269	358.381176101864	112
2	8322	361.29022585736	113
2	8356	363.04332177036	114
2	8386	365.064922397001	115
2	8401	365.781353680577	116
2	8422	366.825385439482	117
2	8460	368.775438896055	118
2	8500	371.200665972278	119
2	8556	374.176324186665	120
2	8597	376.316973306035	121
2	8680	380.925444880598	122
2	8690	381.626433920305	123
2	8694	381.904009473988	124
2	8737	384.28116422744	125
2	8870	391.956425496992	126
2	8968	396.982633508494	127
2	9001	398.716291050835	128
2	9003	398.854148006475	129
2	9057	402.008841519996	130
2	9078	402.864276377385	131
2	9156	407.362803824433	132
2	9164	407.698546697269	133
2	9247	412.189674520486	134
2	9250	412.22296219142	135
2	9424	422.469866078053	136
2	9615	433.148271028832	137
2	9657	435.431834558029	138
2	9690	437.37577037014	139
2	9692	437.576928331673	140
2	9838	445.484250581033	141
2	9895	448.8529203089	142
2	9898	448.907225021888	143
2	9937	451.1127823217	144
2	9970	453.30415221295	145
2	9986	453.879128320402	146
2	9990	454.106867537178	147
2	10055	457.8032913238	148
2	10063	458.597995360395	149
2	10066	458.61361282722	150
2	10074	459.08967031854	151
2	10080	459.282397020955	152
2	10133	462.361324237038	153
2	10161	463.931544343406	154
2	10163	464.014287275508	155
2	10179	464.818697708385	156
2	10256	469.23253405576	157
2	10360	475.065464045524	158
2	10382	476.1489943986	159
2	10387	476.562506653263	160
2	10428	479.121349529128	161
2	10579	487.815646205705	162
2	10595	489.062584400916	163
2	10627	490.47037651284	164
2	10637	491.017668806204	165
2	10649	491.532932730653	166
2	10668	493.029975338392	167
2	10676	493.2732870916	168
2	10700	494.527017946131	169
2	10764	498.434567434245	170
2	10783	499.018145769348	171
2	10785	499.11500042392	172
2	10832	502.012230984826	173
2	10859	503.509273592565	174
2	10869	504.141208435422	175
2	10880	504.603583781815	176
2	10912	506.39875835565	177
2	10915	506.503358808043	178
2	10966	509.497444023521	179
2	11014	512.491529238999	180
2	11102	517.611625784542	181
2	11105	517.658093547868	182
2	11108	517.693415596055	183
2	11270	527.461955316389	184
2	11276	527.63660081273	185
2	11278	527.664041807546	186
2	11315	530.456040531867	187
2	11329	531.04094272565	188
2	11410	535.600791734135	189
2	11419	536.177992486696	190
2	11588	546.14800497927	191
2	11591	546.219712962675	192
2	11631	548.420551824735	193
2	11646	549.37708053894	194
2	11673	551.414637040213	195
2	11710	553.521982501798	196
2	11729	554.408722255691	197
2	11749	555.90576486343	198
2	11792	558.433426360633	199
2	11804	558.899850078908	200
2	11831	561.087034845579	201
2	11866	562.84749788806	202
2	11880	563.390977902125	203
2	11921	566.113242857081	204
2	11932	566.79136792032	205
2	11988	570.11228572689	206
2	12002	570.87619094082	207
2	12004	571.139450868583	208
2	12052	573.870276156298	209
2	12404	594.828872664644	210
2	12424	596.270490926093	211
2	12428	596.325915272383	212
2	12431	596.65958879824	213
2	12439	597.00549242756	214
2	12484	599.63916065396	215
2	12749	615.889320244585	216
2	12758	616.375322972101	217
2	12779	617.906550683965	218
2	12781	618.135786014582	219
2	12824	620.552161562455	220
2	12925	626.450509113606	221
2	12973	629.796408722972	222
2	13005	631.171082790995	223
2	13010	631.453947006607	224
2	13087	636.480543405265	225
2	13098	636.79037850099	226
2	13145	639.943987571604	227
2	13174	641.506363029611	228
2	13177	641.522268755543	229
2	13180	641.790004019535	230
2	13226	644.682640766558	231
2	13235	645.299034318948	232
2	13317	650.219449150987	233
2	13341	651.89744075461	234
2	13358	653.213534366465	235
2	13360	653.319242095096	236
2	13377	653.798706593034	237
2	13476	660.37311616948	238
2	13486	660.69874740516	239
2	13526	663.3716581181	240
2	13564	665.68257678375	241
2	13580	666.686917836116	242
2	13610	668.183960443855	243
2	13615	668.397866129602	244
2	13618	668.764038132255	245
2	13667	671.663611098623	246
2	13680	672.54080369566	247
2	13686	672.675088267072	248
2	13741	676.317569259065	249
2	13748	676.588871159224	250
2	13919	686.843455516403	251
2	13922	686.92041924083	252
2	13932	687.64786594928	253
2	13953	689.142556952201	254
2	13960	689.66509638866	255
2	14033	694.396986643213	256
2	14045	694.821002812176	257
[...]
11	13108	637.745503192138	0
11	13142	639.941833040652	1
11	13190	642.675661622608	0
11	13199	643.356564923346	1
11	13219	644.3439096278	0
11	13257	646.77129680604	1
11	13265	647.099464633805	0
11	13313	650.186028688734	1
11	13364	653.600760571428	2
11	13386	654.710576974204	1
11	13395	655.06365555521	0
11	13426	657.015492454122	1
11	13482	660.430224336816	2
11	13497	661.210507005445	1
11	13519	663.027846476615	0
11	13539	663.84495621951	1
11	13542	663.889986437352	0
11	13590	667.259688102204	1
11	13603	667.88098624831	0
11	13650	670.674419984898	1
11	13670	671.736393262783	0
11	13702	674.089151867592	1
11	13714	674.55803413504	0
11	13760	677.503883750286	1
11	13776	678.59465992123	0
11	13815	680.91861563298	1
11	13835	681.657343913506	0
11	13877	684.333347515674	1
11	13881	684.651429128984	0
11	13937	687.748079398368	1
11	13984	690.63959955994	0
11	13988	691.162811281062	1
11	14000	691.826985114058	0
11	14040	694.577543163756	1
11	14048	694.884610162235	0
11	14098	697.99227504645	1
11	14109	698.54965897602	0
11	14155	701.407006929144	1
11	14208	704.77215864228	0
11	14209	704.821738811838	1
11	14265	708.236470694532	2
11	14272	708.548924205685	1
11	14293	710.101153460547	0
11	14324	711.651202577226	1
11	14327	711.781984168848	0
11	14380	715.06593445992	1
11	14434	718.480666342614	2
11	14437	718.50465803081	1
11	14453	719.763983790764	0
11	14493	721.895398225308	1
11	14529	724.08664354072	0
11	14548	725.310130108002	1
11	14554	725.41552158333	0
11	14605	728.724861990696	1
11	14614	729.192287146735	0
11	14665	732.13959387339	1
11	14669	732.164642277263	0
11	14715	735.554325756084	1
11	14726	735.941407840668	0
11	14769	738.969057638778	1
11	14781	739.718173404073	0
11	14823	742.383789521472	1
11	14884	745.798521404166	2
11	14893	746.316579839735	1
11	14917	747.979216304935	0
11	14937	749.21325328686	1
11	14996	752.627985169554	2
11	15012	753.870110966545	1
11	15056	755.94340722634	0
11	15057	756.042717052248	1
11	15076	758.006516908195	0
11	15108	759.457448934942	1
11	15117	759.673981900344	0
11	15160	762.872180817636	1
11	15201	765.49172994689	0
11	15214	766.28691270033	1
11	15221	766.56232845488	0
11	15269	769.701644583024	1
11	15295	771.479900377846	0
11	15325	773.116376465718	1
11	15334	773.709063474718	0
11	15378	776.531108348412	1
11	15407	778.290239471	0
11	15438	779.945840231106	1
11	15467	782.067005034405	0
11	15487	783.3605721138	1
11	15511	784.084235473785	0
11	15550	786.775303996494	1
11	15573	787.86100103719	0
11	15603	790.190035879188	1
11	15607	790.342654628054	0
11	15663	793.604767761882	1
11	15668	793.935539493931	0
11	15717	797.019499644576	1
11	15772	800.43423152727	2
11	15779	800.95083285143	1
11	15796	802.315654060928	0
11	15827	803.848963409964	1
11	15844	804.727598414835	0
11	15877	807.263695292658	1
11	15909	808.905965571321	0
11	15937	810.678427175352	1
11	15955	811.692743676175	0
11	15993	814.093159058046	1
11	16020	815.547979253756	0
11	16049	817.50789094074	1
11	16062	818.07512554443	0
11	16108	820.922622823434	1
11	16124	822.379349040972	0
11	16163	824.337354706128	1
11	16198	826.870476864189	0
11	16220	827.752086588822	1
11	16230	828.367519471928	0
11	16270	831.166818471516	1
11	16278	831.361604687406	0
11	16330	834.58155035421	1
11	16333	834.941722922075	0
11	16386	837.996282236904	1
11	16389	838.23465235955	0
11	16440	841.411014119598	1
11	16475	843.484977930462	0
11	16493	844.825746002292	1
11	16508	845.467609179413	0
11	16552	848.240477884986	1
11	16582	850.048785175695	0
11	16609	851.65520976768	1
11	16613	852.066015615075	0
11	16662	855.069941650374	1
11	16671	855.457977363336	0
11	16721	858.484673533068	1
11	16752	860.574671433033	0
11	16772	861.899405415762	1
11	16795	863.39631230529	0
11	16829	865.314137298456	1
11	16842	866.171651036256	0
11	16885	868.72886918115	1
11	16891	868.93261299272	0
11	16940	872.143601063844	1
11	16967	874.153650658172	0
11	16996	875.558332946538	1
11	16999	875.681733686653	0
11	17049	878.973064829232	1
11	17058	879.403976229084	0
11	17106	882.387796711926	1
11	17133	884.03967524634	0
11	17152	885.80252859462	1
11	17156	886.025192275955	0
11	17208	889.217260477314	1
11	17244	891.243308996966	0
11	17263	892.631992360008	1
11	17282	893.61043681253	0
11	17327	896.046724242702	1
11	17373	899.14673749996	0
11	17384	899.461456125396	1
11	17406	901.16396793934	0
11	17433	902.87618800809	1
11	17473	904.940733502745	0
11	17493	906.290919890784	1
11	17530	908.71749906615	0
11	17547	909.705651773478	1
11	17589	912.201905505312	0
11	17600	913.120383656172	1
11	17615	913.698948113051	0
11	17657	916.535115538866	1
11	17674	917.881955961575	0
11	17713	919.94984742156	1
11	17716	920.047795756365	0
11	17773	923.364579304254	1
11	17782	923.82456131977	0
11	17825	926.779311186948	1
11	17838	927.29597396058	0
11	17885	930.194043069642	1
11	17940	933.608774952336	2
11	17945	933.810337804385	1
11	17995	936.91439313401	0
11	17997	937.02350683503	1
11	18011	938.0096476335	0
11	18046	940.438238717724	1
11	18105	943.852970600418	2
11	18114	944.46792426082	1
11	18159	947.267702483112	2
11	18201	949.982647066374	1
11	18211	950.682434365806	2
11	18246	952.39344995433	1
11	18260	953.973646877332	0
11	18265	954.0971662485	1
11	18321	957.511898131194	2
11	18325	957.7029105686	1
11	18327	957.815451390415	0
11	18376	960.926630013888	1
11	18395	961.955646499248	0
11	18432	964.341361896582	1
11	18452	965.667101490005	0
11	18490	967.756093779276	1
11	18504	968.32183179714	0
11	18547	971.17082566197	1
11	18574	972.922513644035	0
11	18598	974.585557544664	1
11	18612	975.07769503035	0
11	18660	978.000289427358	1
11	18669	978.458814331465	0
11	18715	981.415021310052	1
11	18737	982.562908069045	0
11	18767	984.829753192746	1
11	18776	985.207935025398	0
11	18825	988.24448507544	1
11	18843	988.984700588803	0
11	18884	991.659216958134	1
11	18906	992.761466152208	0
11	18932	995.073948840828	1
11	18990	998.488680723522	2
11	19031	1000.527419361913	1
11	19046	1001.903412606216	2
11	19066	1003.136638151275	1
11	19083	1004.091762842423	0
11	19107	1005.31814448891	1
11	19143	1007.868528405828	0
11	19157	1008.732876371604	1
11	19190	1010.690169278085	0
11	19212	1012.147608254298	1
11	19258	1015.097969801656	0
11	19273	1015.562340136992	1
11	19282	1016.226469965515	0
11	19325	1018.977072019686	1
11	19329	1019.088969612614	0
11	19377	1022.39180390238	1
11	19393	1023.079969423572	0
11	19433	1025.806535785074	1
11	19437	1025.811643474576	0
11	19487	1029.221267667768	1
11	19520	1031.061969045488	0
11	19546	1032.635999550462	1
11	19557	1033.462356732171	0
11	19599	1036.050731433156	1
11	19634	1038.082652913068	0
11	19656	1039.46546331585	1
11	19682	1040.947569770866	0
11	19708	1042.880195198544	1
11	19711	1043.034968478362	0
11	19763	1046.294927081238	1
11	19781	1047.02596828932	0
11	19814	1049.709658963932	1
11	19820	1049.9298254173	0
11	19866	1053.124390846626	1
11	19870	1053.189715166688	0
11	19928	1056.53912272932	1
11	19931	1056.966480730093	0
11	19985	1059.953854612014	1
11	19994	1060.743246293498	0
11	20031	1063.368586494708	1
11	20091	1066.783318377402	2
11	20095	1066.98096734411	1
11	20111	1067.894336710168	0
11	20147	1070.198050260096	1
11	20162	1070.971967155068	0
11	20202	1073.61278214279	1
11	20221	1074.51104408254	0
11	20257	1077.027514025484	1
11	20268	1077.69464101703	0
11	20319	1080.442245908178	1
11	20334	1081.367720179819	0
11	20374	1083.856977790872	1
11	20380	1084.208250106805	0
11	20430	1087.271709673566	1
11	20479	1090.68644155626	2
11	20487	1090.957370800738	1
11	20537	1094.101173438954	2
11	20558	1094.84110364947	1
11	20560	1094.917966020816	0
11	20587	1097.515905321648	1
11	20612	1098.510901927548	0
11	20644	1100.930637204342	1
11	20664	1101.640639882778	0
11	20704	1104.345369087036	1
11	20722	1105.320401903643	0
11	20755	1107.76010096973	1
11	20793	1109.622639504694	0
11	20812	1111.174832852424	1
11	20823	1111.67726838243	0
11	20875	1114.589564735118	1
11	20893	1115.799700157816	0
11	20922	1118.004296617812	1
11	20954	1119.641459303835	0
11	20980	1121.419028500506	1
11	21003	1122.854964697522	0
11	21032	1124.8337603832	1
11	21036	1124.948260871383	0
11	21089	1128.248492265894	1
11	21143	1131.546667307045	0
11	21144	1131.663224148588	1
11	21160	1132.501791998193	0
11	21198	1135.077956031282	1
11	21208	1135.32343287045	0
11	21257	1138.492687913976	1
11	21280	1139.75238188164	0
11	21313	1141.90741979667	1
11	21331	1142.746467097118	0
11	21365	1145.322151679364	1
11	21369	1145.541637803316	0
11	21423	1148.736883562058	1
11	21427	1148.84349268232	0
11	21482	1152.151615444752	1
11	21516	1154.15295329659	0
11	21539	1155.566347327446	1
11	21564	1156.807683603725	0
11	21589	1158.98107921014	1
11	21612	1159.743561374905	0
11	21648	1162.395811092834	1
11	21697	1165.53755737769	0
11	21700	1165.810542975528	1
11	21711	1166.492682068838	0
11	21753	1169.225274858222	1
11	21757	1169.314322941095	0
11	21807	1172.640006740916	1
11	21812	1172.687319251898	0
11	21866	1176.05473862361	1
11	21881	1176.867854067905	0
11	21926	1179.469470506304	1
11	21937	1180.172532290593	0
11	21979	1182.884202388998	1
11	21992	1183.354986675075	0
11	22034	1186.298934271692	1
11	22059	1187.657745329288	0
11	22093	1189.713666154386	1
11	22142	1193.12839803708	2
11	22190	1196.543129919774	3
11	22208	1196.706806576078	2
11	22220	1197.511217008955	1
11	22226	1198.137043583461	0
11	22252	1199.957861802468	1
11	22292	1201.93809882502	0
11	22309	1203.372593685162	1
11	22323	1204.125214014417	0
11	22365	1206.787325567856	1
11	22375	1207.081978575145	0
11	22428	1210.20205745055	1
11	22481	1213.616789333244	2
11	22500	1214.635509701955	1
11	22516	1215.590634393103	0
11	22540	1217.031521215938	1
11	22552	1217.598597484068	0
11	22593	1220.446253098632	1
11	22653	1223.860984981326	2
11	22682	1225.96580639217	1
11	22695	1226.62095978243	0
11	22710	1227.27571686402	1
11	22744	1229.742571955575	0
11	22758	1230.690448746714	1
11	22761	1230.697696646723	0
11	22815	1234.105180629408	1
11	22833	1235.278872643005	0
11	22875	1237.519912512102	1
11	22919	1240.934644394796	2
11	22944	1242.027993336938	1
11	22955	1242.832403769815	0
11	22971	1244.34937627749	1
11	23002	1245.804758900343	0
11	23039	1247.764108160184	1
11	23051	1248.6263997726	0
11	23098	1251.178840042878	1
11	23119	1252.403165336005	0
11	23148	1254.593571925572	1
11	23202	1257.939466023435	0
11	23206	1258.008303808266	1
11	23244	1260.34216558199	0
11	23264	1261.42303569096	1
11	23267	1261.71623158684	0
11	23313	1264.837767573654	1
11	23334	1265.65162619626	0
11	23365	1268.252499456348	1
11	23388	1269.26976271365	0
11	23429	1271.667231339042	1
11	23444	1273.046528277055	0
11	23483	1275.081963221736	1
11	23524	1277.480301793628	0
11	23537	1278.49669510443	1
11	23546	1278.84052427984	0
11	23595	1281.911426987124	1
11	23606	1282.494957135842	0
11	23654	1285.326158869818	1
11	23666	1286.39405540665	0
11	23703	1288.740890752512	1
11	23731	1290.476956757758	0
11	23762	1292.155622635206	1
11	23766	1292.19892926761	0
11	23823	1295.5703545179	1
11	23865	1298.679476788013	0
11	23871	1298.985086400594	1
11	23911	1301.50111766027	0
11	23922	1302.399818283288	1
11	23974	1305.472580803285	0
11	23981	1305.814550165982	1
11	24018	1308.12731111042	0
11	24034	1309.229282048676	1
11	24061	1310.415239163886	0
11	24087	1312.64401393137	1
11	24102	1313.409324379364	0
11	24146	1316.058745814064	1
11	24150	1316.091502031825	0
11	24204	1319.473477696758	1
11	24231	1321.145629485468	0
11	24256	1322.888209579452	1
11	24273	1324.05569295323	0
11	24311	1326.302941462146	1
11	24349	1328.893601295253	0
11	24368	1329.71767334484	1
11	24391	1331.373835672232	0
11	24428	1333.132405227534	1
11	24448	1334.67461418177	0
11	24474	1336.547137110228	1
11	24532	1339.961868992922	2
11	24581	1343.045538857725	1
11	24591	1343.376600875616	2
11	24597	1344.000663548873	1
11	24605	1344.80507398175	0
11	24642	1346.79133275831	1
11	24645	1346.82230442113	0
11	24692	1350.206064641004	1
11	24701	1350.599069984535	0
11	24750	1353.620796523698	1
11	24798	1356.135370671965	0
11	24810	1357.035528406392	1
11	24813	1357.06462778409	0
11	24866	1360.450260289086	1
11	24877	1361.055627595048	0
11	24921	1363.86499217178	1
11	24948	1365.706132238155	0
11	24977	1367.279724054474	1
11	25002	1368.799900865707	0
11	25034	1370.694455937168	1
11	25067	1373.028627027922	0
11	25088	1374.109187819862	1
11	25094	1374.287952787876	0
11	25143	1377.523919702556	1
11	25169	1378.795964052395	0
11	25204	1380.93865158525	1
11	25231	1382.5727296158	0
11	25253	1384.353383467944	1
11	25256	1384.58996005518	0
11	25307	1387.768115350638	1
11	25317	1388.366725618585	0
11	25366	1391.182847233332	1
11	25375	1392.14349118199	0
11	25423	1394.597579116026	1
11	25437	1395.733411245875	0
11	25482	1398.01231099872	1
11	25538	1401.427042881414	2
11	25566	1403.231880843704	1
11	25568	1403.473787872205	0
11	25589	1404.841774764108	1
11	25619	1406.225966059182	0
11	25649	1408.256506646802	1
11	25691	1411.027318999015	0
11	25702	1411.671238529496	1
11	25721	1412.78685412304	0
11	25755	1415.08597041219	1
11	25760	1415.208221705616	0
11	25810	1418.500702294884	1
11	25862	1421.915434177578	2
11	25868	1422.280714317225	1
11	25888	1423.312740380378	0
11	25920	1425.330166060272	1
11	25928	1425.687519959789	0
11	25978	1428.744897942966	1
11	26021	1431.670681940065	0
11	26028	1432.15962982566	1
11	26046	1432.899635545765	0
11	26090	1435.574361708354	1
11	26097	1436.166818213962	0
11	26146	1438.989093591048	1
11	26151	1439.16090342944	0
11	26206	1442.403825473742	1
11	26240	1445.01820906966	0
11	26255	1445.818557356436	1
11	26259	1445.973333760808	0
11	26315	1449.23328923913	1
11	26333	1450.55450975709	0
11	26369	1452.648021121824	1
11	26383	1453.526864887618	0
11	26420	1456.062753004518	1
11	26424	1456.348505759875	0
11	26476	1459.477484887212	1
11	26500	1460.830622868998	0
11	26538	1462.892216769906	1
11	26546	1463.113585153264	0
11	26593	1466.3069486526	1
11	26648	1469.721680535294	2
11	26662	1470.598798191959	1
11	26697	1472.803622301872	0
11	26707	1473.136412417988	1
11	26710	1473.21510313752	0
11	26758	1476.551144300682	1
11	26762	1476.586968622915	0
11	26815	1479.965876183376	1
11	26829	1480.76863426433	0
11	26879	1483.38060806607	1
11	26908	1485.569224269349	0
11	26934	1486.795339948764	1
11	26954	1488.32216539114	0
11	26985	1490.210071831458	1
11	27019	1492.098930954545	0
11	27040	1493.624803714152	1
11	27048	1494.116161393925	0
11	27102	1497.039535596846	1
11	27129	1499.042607739	0
11	27146	1500.45426747954	1
11	27150	1500.539650346739	0
11	27207	1503.868999362234	1
11	27225	1505.030778169956	0
11	27265	1507.283731244928	1
11	27289	1509.223223647545	0
11	27309	1510.698463127622	1
11	27321	1510.98275877157	0
11	27370	1514.113195010316	1
11	27386	1515.19627506695	0
11	27423	1517.52792689301	1
11	27427	1517.731879465503	0
11	27479	1520.942658775704	1
11	27489	1521.508645028908	0
11	27531	1524.357390658398	1
11	27544	1524.686619844326	0
11	27590	1527.772122541092	1
11	27604	1528.469926602625	0
11	27649	1531.186854423786	1
11	27657	1531.883817027975	0
11	27700	1534.60158630648	1
11	27731	1536.468672932475	0
11	27757	1538.016318189174	1
11	27779	1539.437348154785	0
11	27816	1541.431050071868	1
11	27820	1541.7435781383	0
11	27868	1544.845781954562	1
11	27900	1546.947971186648	0
11	27922	1548.260513837256	1
11	27937	1548.75041440562	0
11	27981	1551.67524571995	1
11	27984	1551.722769536148	0
11	28036	1555.089977602644	1
11	28087	1558.32117597181	0
11	28092	1558.504709485338	1
11	28114	1560.080711095835	0
11	28148	1561.919441368032	1
11	28197	1565.334173250726	2
11	28249	1567.906567694994	1
11	28258	1568.587617764864	0
11	28263	1568.74890513342	1
11	28274	1569.651472662025	0
11	28313	1572.163637016114	1
11	28348	1573.89473812595	0
11	28368	1575.578368898808	1
11	28376	1576.255072131055	0
11	28426	1578.993100781502	1
11	28436	1579.882908556906	0
11	28475	1582.407832664196	1
11	28482	1582.741304476265	0
11	28529	1585.82256454689	1
11	28570	1588.53530047905	0
11	28585	1589.237296429584	1
11	28588	1589.490425170198	0
11	28637	1592.652028312278	1
11	28647	1593.267190733603	0
11	28686	1596.066760194972	1
11	28692	1596.08883160586	0
11	28747	1599.481492077666	1
11	28759	1600.14764489527	0
11	28805	1602.89622396036	1
11	28816	1603.83559028073	0
11	28853	1606.310955843054	1
11	28906	1609.725687725748	2
11	28931	1611.19589385948	1
11	28944	1612.151018550628	0
11	28962	1613.140419608442	1
11	28966	1613.421296430945	0
11	29015	1616.555151491136	1
11	29030	1617.308973750381	0
11	29067	1619.96988337383	1
11	29094	1621.38548735235	0
11	29121	1623.384615256524	1
11	29125	1623.481315240843	0
11	29178	1626.799347139218	1
11	29204	1628.452614929234	0
11	29231	1630.214079021912	1
11	29272	1633.628810904606	2
11	29276	1633.702940500146	1
11	29284	1633.85648723991	0
11	29333	1637.0435427873	1
11	29391	1640.425614362108	0
11	29392	1640.458274669994	1
11	29420	1642.365143057868	0
11	29444	1643.873006552688	1
11	29502	1647.287738435382	2
11	29511	1647.9327904237	1
11	29528	1648.7468685129	0
11	29559	1650.702470318076	1
11	29582	1652.398613794982	0
11	29615	1654.11720220077	1
11	29638	1655.896981345105	0
11	29661	1657.531934083464	1
11	29694	1659.226166767073	0
11	29713	1660.946665966158	1
11	29753	1663.71729459029	0
11	29767	1664.361397848852	1
11	29771	1664.371613227856	0
11	29816	1667.776129731546	1
11	29844	1668.802502001703	0
11	29877	1671.19086161424	1
11	29883	1671.62414287396	0
11	29940	1674.605593496934	1
11	29952	1675.400908437365	0
11	29984	1678.020325379628	1
11	30000	1678.68772066768	0
11	30040	1681.435057262322	1
11	30089	1684.326612282646	0
11	30100	1684.849789145016	1
11	30111	1685.5859380426	0
11	30144	1688.26452102771	1
11	30160	1688.490740251605	0
11	30200	1691.679252910404	1
11	30216	1692.26750581501	0
11	30253	1695.093984793098	1
11	30258	1695.155189352809	0
11	30313	1698.508716675792	1
11	30345	1700.290611526478	0
11	30370	1701.923448558486	1
11	30397	1703.597802505225	0
11	30422	1705.33818044118	1
11	30428	1705.615032944605	0
11	30478	1708.752912323874	1
11	30506	1710.346923199158	0
11	30529	1712.167644206568	1
11	30551	1713.168564071415	0
11	30580	1715.582376089262	1
11	30605	1716.94532963482	0
11	30634	1718.997107971956	1
11	30650	1719.610508716345	0
11	30690	1722.41183985465	1
11	30723	1724.49886076163	0
11	30748	1725.826571737344	1
11	30783	1728.090126723067	0
11	30797	1729.241303620038	1
11	30808	1729.486935963138	0
11	30857	1732.656035502732	1
11	30872	1733.811927012465	0
11	30905	1736.070767385426	1
11	30941	1738.19362086629	0
11	30956	1739.48549926812	1
11	30987	1741.365458139275	0
11	31013	1742.900231150814	1
11	31036	1744.191609447016	0
11	31069	1746.314963033508	1
11	31084	1747.15945414206	0
11	31128	1749.729694916202	1
11	31140	1750.545765839152	0
11	31185	1753.144426798896	1
11	31192	1753.432934828886	0
11	31236	1756.55915868159	1
11	31286	1759.973890564284	2
11	31342	1763.388622446978	3
11	31386	1766.043281959085	2
11	31396	1766.803354329672	3
11	31405	1766.998406650233	2
11	31422	1768.137608312764	1
11	31428	1768.51027713202	0
11	31453	1770.218086212366	1
11	31468	1770.775172213638	0
11	31510	1773.63281809506	1
11	31523	1774.551937777043	0
11	31558	1777.047549977754	1
11	31568	1777.492532778454	0
11	31606	1780.462281860448	1
11	31657	1783.48070320941	0
11	31663	1783.877013743142	1
11	31704	1786.474788424888	0
11	31720	1787.291745625836	1
11	31763	1790.46341046354	0
11	31771	1790.70647750853	1
11	31778	1790.965916248105	0
11	31830	1794.121209391224	1
11	31883	1797.333932749424	0
11	31885	1797.535941273918	1
