version 2
run conf3-2-20161125-01:35:24-2820
attr configname conf3
attr datetime 20161125-01:35:24
attr experiment conf3
attr i 3
attr inifile omnetpp.ini
attr iterationvars "$i=3, $p=7, $q=1"
attr iterationvars2 "$i=3, $p=7, $q=1, $repetition=0"
attr measurement "$i=3, $p=7, $q=1"
attr network Omrezje
attr p 7
attr processid 2820
attr q 1
attr repetition 0
attr replication #0
attr resultdir results
attr runnumber 2
attr seedset 2
param Omrezje.router*.processingTime "truncnormal(${p = 5..7 step 2}, ${p} * 0.5)"
param Omrezje.router*.queueCapacity "truncnormal(${q = 1..6 step 5}, 0)"
param Omrezje.source*.interArrivalTime "truncnormal(${i = 3..5 step 2}, ${i} * 0.5)"

vector 0  Omrezje.router  droppedPackage:vector  ETV
attr interpolationmode  none
attr title  "drop package, vector"
vector 1  Omrezje.router  queueLength:vector  ETV
attr interpolationmode  none
attr title  "queue length, vector"
vector 2  Omrezje.router1  droppedPackage:vector  ETV
attr interpolationmode  none
attr title  "drop package, vector"
vector 3  Omrezje.router1  queueLength:vector  ETV
attr interpolationmode  none
attr title  "queue length, vector"
vector 4  Omrezje.router2  droppedPackage:vector  ETV
attr interpolationmode  none
attr title  "drop package, vector"
vector 5  Omrezje.router2  queueLength:vector  ETV
attr interpolationmode  none
attr title  "queue length, vector"
vector 6  Omrezje.router3  droppedPackage:vector  ETV
attr interpolationmode  none
attr title  "drop package, vector"
vector 7  Omrezje.router3  queueLength:vector  ETV
attr interpolationmode  none
attr title  "queue length, vector"
vector 8  Omrezje.router4  droppedPackage:vector  ETV
attr interpolationmode  none
attr title  "drop package, vector"
vector 9  Omrezje.router4  queueLength:vector  ETV
attr interpolationmode  none
attr title  "queue length, vector"
vector 10  Omrezje.router5  droppedPackage:vector  ETV
attr interpolationmode  none
attr title  "drop package, vector"
vector 11  Omrezje.router5  queueLength:vector  ETV
attr interpolationmode  none
attr title  "queue length, vector"
0	0	0	0
0	258	6.381148689908	1
0	301	7.719130617328	2
0	407	10.578695925992	3
0	414	10.762297379816	4
0	427	11.046690266644	5
0	461	11.813650614292	6
0	493	12.492365603548	7
0	702	16.29782654332	8
0	722	16.60382896636	9
0	769	17.552229282712	10
0	870	19.524594759632	11
0	968	21.347127042085	12
0	1014	22.069964710537	13
0	1152	24.876522469312	14
0	1178	25.366126346176	15
0	1220	26.650773490808	16
0	1228	26.768409555475	17
0	1316	28.394794309492	18
0	1344	29.109563091731	19
0	1370	29.747275036084	20
0	1406	30.59565308664	21
0	1455	31.519306809388	22
0	1461	31.794835498872	23
0	1535	33.455218395304	24
0	1568	34.128423725992	25
0	1634	35.623158773124	26
0	1667	36.314783703968	27
0	1791	39.174349012632	28
0	1797	39.237359336272	29
0	1828	39.969955312536	30
0	1911	41.983323834359	31
0	1918	42.033914321296	32
0	1960	42.851547678532	33
0	1964	42.890721105808	34
0	2043	44.850570677769	35
0	2141	47.271869795716	36
0	2266	50.192635588988	37
0	2281	50.441343197278	38
0	2288	50.612610247288	39
0	2321	51.525599699956	40
0	2324	51.653018485624	41
0	2508	56.034167175532	42
0	2568	57.511449286673	43
0	2758	62.050871481944	44
0	2911	66.256847451984	45
0	2989	68.125218335065	46
0	3016	69.026744734476	47
0	3023	69.177613245256	48
0	3028	69.23512257703	49
0	3296	76.479527728436	50
0	3336	77.539686878015	51
0	3402	79.246061651661	52
0	3426	80.07768760381	53
0	3503	82.067828642592	54
0	3589	84.927393951256	55
0	3887	93.992312721511	56
0	3890	94.004122488068	57
0	3987	97.064372812432	58
0	4066	99.594304652014	59
0	4125	101.306036971248	60
0	4207	103.931330662726	61
0	4214	104.22680276452	62
0	4277	106.461262502308	63
0	4405	110.79828851302	64
0	4434	111.5287172477	65
0	4451	112.063254432811	66
0	4486	113.523047037896	67
0	4557	115.909865937608	68
0	4571	116.38261234656	69
0	4590	117.123118111975	70
0	4615	117.845955780427	71
0	4639	118.83063173088	72
0	4652	119.242177655224	73
0	4782	123.44794771093	74
0	4820	124.961308272552	75
0	4858	126.13254621406	76
0	4895	127.495476020832	77
0	4908	127.820873581216	78
0	4988	130.68043888988	79
0	4996	131.083605351362	80
0	5071	133.540004198544	81
0	5245	139.531085833987	82
0	5278	140.73637518042	83
0	5314	142.196758077056	84
0	5427	146.036624850055	85
0	5483	148.0382896636	86
0	5606	152.419438353508	87
0	5633	153.556961359192	88
0	5803	159.58983113353	89
0	5882	162.135657285184	90
0	5890	162.481114592454	91
0	5907	163.023310058677	92
0	5954	164.995222593848	93
0	5962	165.310937299373	94
0	6006	166.998917235163	95
0	6140	171.404416009776	96
0	6257	175.785564699684	97
0	6274	176.433483828504	98
0	6282	176.576443016824	99
0	6352	179.287157598847	100
0	6514	184.88914952935	101
0	6521	185.012179754496	102
0	6842	196.450440989152	103
0	6923	199.310006297816	104
0	6955	200.430159401068	105
0	6961	200.612073942496	106
0	7000	202.072456839132	107
0	7006	202.16957160648	108
0	7088	205.029136915144	109
0	7114	206.032151331571	110
0	7231	210.405231235312	111
0	7243	210.748267532472	112
0	7246	210.834754218948	113
0	7304	212.891040295652	114
0	7521	221.0574344954	115
0	7636	225.046094075792	116
0	7650	225.579829894354	117
0	7678	226.898966081944	118
0	7680	226.900419839428	119
0	7712	227.905659384456	120
0	7726	228.35934897858	121
0	7737	228.801537887809	122
0	7765	229.885794390487	123
0	7804	231.280114771852	124
0	7829	232.415726230069	125
0	7879	234.200880565124	126
0	7918	235.66126346176	127
0	7923	235.668495738103	128
0	7958	237.121646358396	129
0	7997	238.582029255032	130
0	8024	239.343920619112	131
0	8039	240.042412151668	132
0	8140	243.824317299489	133
0	8195	245.788223096431	134
0	8254	247.922616545104	135
0	8275	248.804709531484	136
0	8328	250.782181853768	137
0	8521	257.5670069113	138
0	8568	259.36087777976	139
0	8638	261.948155601208	140
0	8661	262.955617722166	141
0	8802	267.939573705752	142
0	8816	268.451540169294	143
0	8911	271.991088577816	144
0	8956	273.631218774296	145
0	8959	273.65870432308	146
0	8994	275.022814893452	147
0	9000	275.091601670932	148
0	9033	276.518269631744	149
0	9125	279.580884096562	150
0	9160	280.933133257476	151
0	9238	283.853899050748	152
0	9268	285.096965557736	153
0	9497	293.255810748899	154
0	9510	293.675661483728	155
0	9555	295.536962223836	156
0	9674	299.918110913744	157
0	9682	300.181757647444	158
0	9734	301.988851818574	159
0	9741	302.25435740972	160
0	9874	307.220025396924	161
0	9924	308.855809668868	162
0	9998	311.601174086832	163
0	10051	313.692618644376	164
0	10077	314.521939880104	165
0	10116	315.98232277674	166
0	10206	319.411749261704	167
0	10236	320.363471466648	168
0	10272	321.823854363284	169
0	10287	322.271314570368	170
0	10308	323.28423725992	171
0	10433	327.665385949828	172
0	10476	329.125768846464	173
0	10515	330.85001049636	174
0	10530	331.107449130297	175
0	10554	332.046534639736	176
0	10610	334.155128064688	177
0	10660	336.427683329644	178
0	10668	336.569141113688	179
0	10755	339.428706422352	180
0	10763	339.757119995191	181
0	10790	340.808832019552	182
0	10818	342.017840609148	183
0	10824	342.269214916188	184
0	10830	342.288271731016	185
0	10835	342.467761251886	186
0	10898	345.14783703968	187
0	10904	345.18998070946	188
0	10912	345.539821342807	189
0	10945	346.650363606096	190
0	10980	348.007402348344	191
0	11065	351.031512296004	192
0	11076	351.322522690423	193
0	11081	351.554477884511	194
0	11133	353.726532965672	195
0	11144	353.952278089276	196
0	11182	355.412660985912	197
0	11221	356.873043882548	198
0	11226	356.924514620926	199
0	11256	358.333426779184	200
0	11275	358.731608792056	201
0	11292	359.454446460508	202
0	11450	365.164794200328	203
0	11541	368.556107055636	204
0	11602	370.839139738627	205
0	11703	374.39763864218	206
0	11726	375.537584583565	207
0	11757	376.603055434984	208
0	11762	376.621841086243	209
0	11862	380.239170228724	210
0	11908	382.223833016746	211
0	12017	386.080701815268	212
0	12053	387.541084711904	213
0	12071	388.04131666964	214
0	12097	389.00146760854	215
0	12146	390.900881978304	216
0	12173	391.922233401812	217
0	12209	393.382616298448	218
0	12221	393.760447286968	219
0	12251	394.842999195084	220
0	12375	399.391227642481	221
0	12378	399.479577904296	222
0	12408	400.684530781628	223
0	12459	402.33914321296	224
0	12488	403.6052965749	225
0	12516	404.920763491618	226
0	12522	405.065679471536	227
0	12531	405.198708521624	228
0	12563	406.526062368172	229
0	12645	409.446828161444	230
0	12669	410.558894861366	231
0	12681	410.90721105808	232
0	12840	416.748742644624	233
0	12876	418.20912554126	234
0	12957	421.129891334532	235
0	12968	421.61848594738	236
0	12992	422.356100373608	237
0	12998	422.590274231168	238
0	13107	426.678349626544	239
0	13147	428.075230990936	240
0	13347	435.713820482194	241
0	13350	435.733720300892	242
0	13374	436.653926916928	243
0	13423	438.424461738889	244
0	13435	438.654486094164	245
0	13497	441.315812412697	246
0	13503	441.575251887436	247
0	13628	445.956400577344	248
0	13684	448.092188151584	249
0	13710	449.267026765669	250
0	13724	449.628445599895	251
0	13726	449.74800119417	252
0	13837	453.811318768912	253
0	13861	454.71869795716	254
0	13983	459.099846647068	255
0	14024	460.560229543704	256
0	14060	462.02061244034	257
0	14069	462.390014694904	258
0	14116	463.904489551822	259
0	14151	465.249580003568	260
0	14168	466.073002557178	261
0	14180	466.401761130248	262
0	14191	466.940208558846	263
0	14227	468.109145312232	264
0	14296	470.782909820156	265
0	14305	470.968710620896	266
0	14322	471.674994487681	267
0	14336	472.243292716792	268
0	14374	473.703675613428	269
0	14377	473.82827592956	270
0	14421	475.289182829941	271
0	14454	476.687841238224	272
0	14492	478.084824303336	273
0	14534	479.547406546888	274
0	14717	486.493166690947	275
0	14729	486.847121683152	276
0	14762	488.12610247288	277
0	14811	489.767887476424	278
0	14840	490.985667781544	279
0	14911	493.845233090208	280
0	14928	494.263671626806	281
0	15148	502.4239290162	282
0	15157	502.911333546148	283
0	15196	504.371716442784	284
0	15229	505.283494324864	285
0	15244	505.83209933942	286
0	15282	507.292482236056	287
0	15303	508.143059633528	288
0	15359	510.213248029328	289
0	15440	513.1340138226	290
0	15484	514.864325201704	291
0	15514	516.054779615872	292
0	15532	516.72175555952	293
0	15556	517.515162512508	294
0	15637	520.466537108191	295
0	15688	522.440886176848	296
0	15760	525.300451485512	297
0	15844	528.160016794176	298
0	15938	531.778719310948	299
0	15996	533.879147411504	300
0	16025	534.768090068849	301
0	16034	535.03975727214	302
0	16079	536.738712720168	303
0	16108	537.960523065412	304
0	16193	540.881288858684	305
0	16225	542.34167175532	306
0	16228	542.457843337496	307
0	16265	543.802054651956	308
0	16301	545.262437548592	309
0	16304	545.31740864616	310
0	16383	548.183203341864	311
0	16421	549.6435862385	312
0	16454	551.036539263488	313
0	16457	551.103969135136	314
0	16465	551.187138017401	315
0	16497	552.564352031772	316
0	16530	553.896104572152	317
0	16541	554.259198108322	318
0	16573	555.485117825044	319
0	16620	557.331258199243	320
0	16646	558.405883618316	321
0	16770	562.933250129746	322
0	16829	565.334365806808	323
0	16837	565.643891386441	324
0	16911	568.193931115472	325
0	16959	570.088946791404	326
0	17000	571.54932968804	327
0	17063	573.9130617328	328
0	17077	574.317943407865	329
0	17134	576.772627041464	330
0	17157	577.390861274584	331
0	17209	579.632192350128	332
0	17228	580.100644755481	333
0	17307	583.232392861128	334
0	17375	585.883346103097	335
0	17420	587.613541551036	336
0	17434	588.051859108453	337
0	17458	589.073924447672	338
0	17565	593.45507313758	339
0	17615	594.915456034216	340
0	17659	596.789584202112	341
0	17676	597.268039381216	342
0	17722	599.255842969459	343
0	17737	599.649149510776	344
0	17809	602.50871481944	345
0	17867	604.857834899962	346
0	17918	606.598519207304	347
0	17948	608.05890210394	348
0	17957	608.227845436768	349
0	17993	609.519285000576	350
0	18034	610.979667897212	351
0	18040	611.087410745432	352
0	18073	612.440050793848	353
0	18109	613.900433690484	354
0	18117	614.074015172725	355
0	18141	615.36081658712	356
0	18259	619.666106671424	357
0	18261	619.676007103228	358
0	18320	621.844520108584	359
0	18415	625.458708450844	360
0	18531	629.96464555348	361
0	18562	631.060700381347	362
0	18578	631.425028450116	363
0	18652	634.345794243388	364
0	18702	636.598410538125	365
0	18759	638.46978648298	366
0	18768	638.726942933296	367
0	18836	641.647708726568	368
0	18940	645.4021944494	369
0	18955	646.028857416476	370
0	18990	647.489240313112	371
0	19014	648.261759758064	372
0	19031	648.949623209748	373
0	19170	654.010796354698	374
0	19224	656.251537692928	375
0	19242	656.840455684056	376
0	19313	659.612788285201	377
0	19459	665.214780215704	378
0	19465	665.419151610048	379
0	19538	667.934600866016	380
0	19609	670.856820416772	381
0	19692	673.99784753604	382
0	19921	682.576543462032	383
0	19986	685.436108770696	384
0	19992	685.459195625648	385
0	20030	686.919578522284	386
0	20044	687.513570772763	387
0	20065	688.29567407936	388
0	20100	689.429842108846	389
0	20109	689.840344315556	390
0	20248	695.212543456462	391
0	20337	698.602641695372	392
0	20379	700.063024592008	393
0	20399	700.814535386965	394
0	20417	701.523407488644	395
0	20441	702.59350062268	396
0	20518	705.453065931344	397
0	20530	705.904556178552	398
0	20592	708.312631240008	399
0	20609	708.825321971824	400
0	20792	716.127236455004	401
0	20893	719.750892474664	402
0	20914	720.508385144912	403
0	20950	721.968768041548	404
0	20995	723.429150938184	405
0	21040	725.470023091992	406
0	21099	727.810299628092	407
0	21117	728.329588400656	408
0	21197	731.18915370932	409
0	21253	733.522939884418	410
0	21271	734.048719017984	411
0	21346	736.908284326648	412
0	21377	738.032979904544	413
0	21412	739.66706006626	414
0	21418	739.767849635312	415
0	21577	745.622401944776	416
0	21760	752.636808870904	417
0	21986	761.39910625072	418
0	22015	762.617156039611	419
0	22029	762.942105470616	420
0	22065	764.319872043992	421
0	22101	765.780254940628	422
0	22160	768.219147970114	423
0	22166	768.363502721952	424
0	22171	768.399857387227	425
0	22245	771.223068030616	426
0	22257	771.621786527172	427
0	22324	774.08263333928	428
0	22369	776.00293521708	429
0	22393	776.942198647944	430
0	22441	778.923701010352	431
0	22454	779.42313183112	432
0	22466	779.801763956608	433
0	22490	780.384083906988	434
0	22737	790.60676418344	435
0	22782	792.067147080076	436
0	22818	793.527529976712	437
0	22833	794.099590499928	438
0	22910	796.959155808592	439
0	22931	797.90867866662	440
0	23010	800.829444459892	441
0	23033	801.831099553132	442
0	23057	802.67828642592	443
0	23084	803.750210253164	444
0	23117	805.2105931498	445
0	23129	805.537851734584	446
0	23504	819.835678277904	447
0	23537	821.274805012796	448
0	23570	822.695243586568	449
0	23573	822.735187909432	450
0	23760	830.037102392612	451
0	23840	832.957868185884	452
0	23879	834.41825108252	453
0	23945	836.993070129888	454
0	24031	840.259782669064	455
0	24212	847.369872665608	456
0	24242	848.431331364544	457
0	24314	851.290896673208	458
0	24332	851.942845842152	459
0	24370	853.403228738788	460
0	24468	857.010027290536	461
0	24483	857.784377428696	462
0	24539	859.8695925992	463
0	24629	863.62590901524	464
0	24669	865.086291911876	465
0	24749	868.007057705148	466
0	24758	868.448288525192	467
0	24784	869.467440601784	468
0	24795	869.95176378542	469
0	24819	870.92782349842	470
0	24831	871.307853833856	471
0	24905	874.16741914252	472
0	24934	875.308972188328	473
0	24970	876.769355084964	474
0	25115	882.526863188593	475
0	25125	882.746115068512	476
0	25197	885.53165246478	477
0	25200	885.605680377176	478
0	25274	888.46524568584	479
0	25494	897.043941611832	480
0	25536	898.675098534504	481
0	25616	901.595864327776	482
0	25643	902.76307222916	483
0	25655	903.056247224412	484
0	25716	905.622637537824	485
0	25763	907.43739591432	486
0	25780	908.077010232655	487
0	25793	908.482202846488	488
0	25802	908.897778810956	489
0	25835	910.358161707592	490
0	25840	910.437459238045	491
0	25911	913.278927500864	492
0	25937	914.201333463816	493
0	25949	914.7393103975	494
0	26086	919.920464081144	495
0	26101	920.580841984044	496
0	26160	922.780029389808	497
0	26232	925.639594698472	498
0	26367	930.803522260496	499
0	26400	932.263905157132	500
0	26482	935.184670950404	501
0	26515	936.64505384704	502
0	26530	937.077855933128	503
0	26568	938.628128307673	504
0	26586	939.565819640312	505
0	26705	943.94696833022	506
0	26722	944.410829655289	507
0	26746	945.65655185912	508
0	26779	946.867734123492	509
0	26821	948.516117167784	510
0	26932	952.709265710036	511
0	27009	955.614813516295	512
0	27042	957.090414399944	513
0	27045	957.094813093776	514
0	27119	960.011180193216	515
0	27145	961.216805446798	516
0	27259	965.673509019768	517
0	27307	967.313094676396	518
0	27337	968.533074328432	519
0	27415	971.694243366304	520
0	27503	974.615009159576	521
0	27533	976.075392056212	522
0	27578	977.535774952848	523
0	27610	978.996157849484	524
0	27686	981.916923642756	525
0	27710	982.830900871752	526
0	27725	983.377306539392	527
0	27799	986.298072332664	528
0	27856	988.55003148908	529
0	27877	989.218838125936	530
0	27930	991.409596797744	531
0	27986	993.599986815844	532
0	28000	994.269162106408	533
0	28174	1000.901901299024	534
0	28215	1002.36228419566	535
0	28251	1003.822667092296	536
0	28299	1005.707423341064	537
0	28323	1006.743432885568	538
0	28331	1006.936287976387	539
0	28407	1009.66419867884	540
0	28449	1011.426553958392	541
0	28475	1012.53827990689	542
0	28478	1012.584964472112	543
0	28520	1014.045347368748	544
0	28526	1014.286119267056	545
0	28591	1016.96611316202	546
0	28626	1018.320981254506	547
0	28747	1022.864815193048	548
0	28773	1024.103682602122	549
0	28817	1025.724380501712	550
0	28892	1028.649176335108	551
0	28964	1031.44351111904	552
0	29066	1035.307666463128	553
0	29114	1037.162641736368	554
0	29120	1037.411473714924	555
0	29153	1038.87185661156	556
0	29224	1041.632496062083	557
0	29263	1042.881772353696	558
0	29275	1043.253005301468	559
0	29332	1045.74133766236	560
0	29350	1046.17377109474	561
0	29407	1048.600902971024	562
0	29425	1049.094536888012	563
0	29514	1053.017189340202	564
0	29534	1053.47568557792	565
0	29558	1054.320033588352	566
0	29724	1060.7776000611	567
0	29777	1062.898729514344	568
0	29795	1063.698365854372	569
0	29839	1065.158748751008	570
0	29851	1065.758294823008	571
0	29872	1066.619131647644	572
0	29908	1068.07951454428	573
0	30002	1071.477425440336	574
0	30073	1074.336990749	575
0	30097	1075.38142902746	576
0	30147	1077.196556057664	577
0	30251	1081.388567826943	578
0	30328	1084.143726407276	579
0	30370	1085.775251983656	580
0	30399	1086.990559757446	581
0	30474	1089.98525799382	582
0	30512	1091.494382600984	583
0	30549	1092.906023787092	584
0	30627	1095.826789580364	585
0	30663	1097.213513218312	586
0	30706	1098.747555373636	587
0	30733	1100.073078526976	588
0	30895	1106.049469856816	589
0	30931	1107.509852753452	590
0	30955	1108.651774452968	591
0	31003	1110.430618546724	592
0	31078	1113.351384339996	593
0	31102	1114.370905070296	594
0	31114	1114.811767236632	595
0	31128	1115.181228827074	596
0	31152	1116.272150133268	597
0	31193	1117.732533029904	598
0	31232	1119.19291592654	599
0	31253	1120.090035687624	600
0	31265	1120.653298823176	601
0	31304	1122.113681719812	602
0	31380	1125.034447513084	603
0	31424	1126.565922105193	604
0	31495	1129.415596202992	605
0	31548	1131.52829692228	606
0	31571	1132.336361996264	607
0	31610	1133.7967448929	608
0	31625	1134.387862230944	609
0	31685	1136.717510686172	610
0	31699	1137.247427539608	611
0	31725	1138.177893582808	612
0	31758	1139.638276479444	613
0	31844	1142.966558156936	614
0	31855	1143.371897896702	615
0	31906	1145.479808065988	616
0	31921	1145.8261234656	617
0	31945	1146.940190962624	618
0	31978	1148.40057385926	619
0	32019	1149.860956755896	620
0	32137	1154.404819391592	621
0	32142	1154.575881757708	622
0	32178	1155.70248834244	623
0	32208	1157.162871239076	624
0	32211	1157.264384700256	625
0	32283	1160.083637032348	626
0	32286	1160.12395000892	627
0	32359	1162.983515317584	628
0	32438	1165.843080626248	629
0	32477	1167.385551515528	630
0	32504	1168.702645934912	631
0	32513	1168.845934412164	632
0	32530	1169.485548730499	633
0	32585	1171.562211243576	634
0	32627	1173.227083102072	635
0	32663	1174.687465998708	636
0	32699	1176.147848895344	637
0	32824	1180.528997585252	638
0	32854	1181.989380481888	639
0	32892	1183.449763378524	640
0	32930	1184.91014627516	641
0	32957	1185.860037786896	642
0	32972	1186.370529171796	643
0	33005	1187.830912068432	644
0	33100	1191.579168404224	645
0	33125	1192.21206075834	646
0	33166	1194.151244105455	647
0	33172	1194.438733712888	648
0	33201	1195.291418915655	649
0	33232	1196.593209448248	650
0	33250	1197.298299021552	651
0	33298	1199.51397524152	652
0	33311	1199.897286626086	653
0	33323	1200.157864330216	654
0	33338	1200.974358138156	655
0	33449	1205.355227966461	656
0	33470	1205.876994947544	657
0	33475	1205.995121146399	658
0	33566	1209.736655517972	659
0	33718	1215.578187104516	660
0	33765	1217.3152561822	661
0	33789	1218.498952897788	662
0	33830	1219.959335794424	663
0	33866	1221.41971869106	664
0	33907	1223.034386799528	665
0	33945	1224.340484484332	666
0	34017	1227.261250277604	667
0	34129	1231.61308272552	668
0	34206	1234.472648034184	669
0	34242	1236.02354765742	670
0	34330	1239.328598383705	671
0	34427	1243.051343960176	672
0	34472	1244.785845037236	673
0	34477	1244.930590314208	674
0	34504	1245.91090926884	675
0	34545	1247.706610830508	676
0	34587	1249.166993727144	677
0	34634	1250.894001078937	678
0	34651	1251.630039886168	679
0	34663	1252.087759520416	680
0	34695	1253.480173469527	681
0	34735	1255.008525313688	682
0	34887	1260.850056900232	683
0	34944	1263.068301120824	684
0	35018	1265.927866429488	685
0	35056	1267.554863063062	686
0	35110	1269.612354280048	687
0	35146	1271.072737176684	688
0	35189	1272.53312007332	689
0	35236	1274.50656235548	690
0	35263	1275.453885866592	691
0	35302	1276.914268763228	692
0	35390	1280.225692972808	693
0	35417	1281.295417453136	694
0	35489	1284.216183246408	695
0	35542	1285.944823590136	696
0	35566	1287.13694903968	697
0	35599	1288.597331936316	698
0	35608	1288.8043888988	699
0	35677	1291.518097729588	700
0	35683	1291.663954207464	701
0	35713	1292.978480626224	702
0	35733	1293.484942225314	703
0	35875	1298.820012212768	704
0	35934	1301.311928453464	705
0	36024	1304.661543799312	706
0	36051	1305.961780750784	707
0	36057	1306.121926695948	708
0	36135	1309.04269248922	709
0	36201	1311.680911368112	710
0	36227	1312.659914021046	711
0	36251	1313.423841179128	712
0	36272	1314.540476676776	713
0	36358	1317.804989869036	714
0	36369	1318.117904244973	715
0	36508	1323.64652145558	716
0	36547	1325.106904352216	717
0	36589	1326.567287248852	718
0	36622	1328.027670145488	719
0	36643	1328.838303220096	720
0	36661	1329.488053042124	721
0	36666	1329.502597523092	722
0	36740	1332.408818835396	723
0	36868	1337.416999146088	724
0	36892	1338.25035042194	725
0	36942	1340.276564454752	726
0	36971	1341.171116215212	727
0	37001	1342.631499111848	728
0	37046	1344.091882008484	729
0	37104	1346.669992148827	730
0	37113	1347.012647801756	731
0	37250	1352.126833609282	732
0	37300	1354.314562284936	733
0	37309	1354.574390998072	734
0	37342	1355.774945181572	735
0	37491	1361.616476768116	736
0	37526	1363.076859664752	737
0	37532	1363.153086924064	738
0	37537	1363.403096348778	739
0	37564	1364.537242561388	740
0	37639	1367.45800835466	741
0	37674	1369.041227718526	742
0	37702	1369.857682577271	743
0	37976	1380.462653148958	744
0	38012	1382.06183732102	745
0	38053	1383.522220217656	746
0	38091	1384.982603114292	747
0	38129	1386.442986010928	748
0	38192	1388.88917470204	749
0	38314	1393.744900494108	750
0	38359	1395.205283390744	751
0	38392	1396.66566628738	752
0	38406	1397.231884567266	753
0	38471	1399.586432080652	754
0	38492	1400.327435936696	755
0	38546	1402.507197873924	756
0	38551	1402.689911453857	757
0	38563	1403.18700124536	758
0	38713	1408.906131862688	759
0	38737	1409.809112357104	760
0	38770	1411.26949525374	761
0	38791	1411.765697171352	762
0	38809	1412.729878150376	763
0	38847	1414.190261047012	764
0	38862	1414.625262480016	765
0	38986	1419.495887245366	766
0	39010	1420.344393097344	767
0	39075	1422.952558426828	768
0	39114	1424.412941323464	769
0	39131	1425.422541416006	770
0	39149	1425.8733242201	771
0	39155	1426.063523714672	772
0	39185	1427.333707116736	773
0	39303	1431.714855806644	774
0	39369	1434.635621599916	775
0	39427	1436.663281871101	776
0	39447	1437.501784949328	777
0	39453	1437.556387393188	778
0	39525	1440.47715318646	779
0	39558	1441.937536083096	780
0	39634	1444.858301876368	781
0	39709	1447.77906766964	782
0	39742	1448.940046183984	783
0	39816	1451.799611492648	784
0	39875	1454.011385913949	785
0	39934	1456.541365049456	786
0	40016	1459.462130842728	787
0	40040	1460.37830741864	788
0	40088	1462.382896636	789
0	40109	1463.237872727304	790
0	40160	1465.303662429272	791
0	40430	1475.526342705724	792
0	40461	1476.600063053074	793
0	40470	1476.98672560236	794
0	40482	1477.535699270624	795
0	40503	1478.447108498996	796
0	40557	1480.395264579288	797
0	40619	1482.828257188904	798
0	40628	1483.254829887952	799
0	40652	1484.28864008554	800
0	40784	1489.309403093783	801
0	40842	1491.59055456872	802
0	40853	1491.833525813944	803
0	40894	1493.508786004249	804
0	40924	1494.693091122608	805
0	40951	1495.971703258628	806
0	40996	1497.552656431272	807
0	41075	1500.412221739936	808
0	41144	1503.2717870486	809
0	41215	1506.131352357264	810
0	41294	1508.990917665928	811
0	41297	1509.115149328352	812
0	41333	1510.575532224988	813
0	41341	1510.754142887431	814
0	41413	1513.49629801826	815
0	41487	1516.417063811532	816
0	41513	1517.56961359192	817
0	41525	1517.877446708168	818
0	41564	1519.337829604804	819
0	41636	1522.258595398076	820
0	41674	1523.718978294712	821
0	41739	1526.239960440802	822
0	41787	1528.102246930279	823
0	41825	1529.560509881256	824
0	41882	1531.86744013524	825
0	41897	1532.481275674528	826
0	41935	1533.941658571164	827
0	42081	1539.667649625511	828
0	42084	1539.783190157708	829
0	42105	1540.446136061232	830
0	42162	1542.70395595098	831
0	42177	1543.305701369896	832
0	42201	1544.164338847616	833
0	42237	1545.624721744252	834
0	42320	1548.545487537524	835
0	42329	1549.024831987224	836
0	42375	1550.871633486517	837
0	42428	1552.926636227432	838
0	42463	1554.387019124068	839
0	42475	1554.743962604552	840
0	42504	1555.847402020704	841
0	42536	1557.30778491734	842
0	42622	1560.46309322188	843
0	42651	1561.688933607248	844
0	42668	1562.256326764636	845
0	42692	1563.149316503884	846
0	42767	1566.182223839208	847
0	42802	1567.530465193792	848
0	42846	1569.041789147872	849
0	42993	1574.832379676972	850
0	43064	1577.620485073864	851
0	43102	1579.062302556145	852
0	43105	1579.21352836688	853
0	43135	1580.480050382528	854
0	43204	1583.339615691192	855
0	43298	1586.51544285006	856
0	43334	1587.975825746696	857
0	43358	1589.05874630852	858
0	43373	1589.436208643332	859
0	43434	1591.918311617184	860
0	43656	1600.497007543176	861
0	43674	1601.11927181642	862
0	43713	1602.579654713056	863
0	43731	1603.35657285184	864
0	43994	1613.216382390502	865
0	44177	1620.513964703824	866
0	44240	1623.02501526596	867
0	44329	1626.233095321152	868
0	44356	1627.406163955868	869
0	44395	1628.866546852504	870
0	44401	1629.092660629816	871
0	44427	1630.022358182011	872
0	44433	1630.32692974914	873
0	44469	1631.787312645776	874
0	44507	1633.247695542412	875
0	44627	1637.671356555808	876
0	44692	1640.530921864472	877
0	44733	1642.009992922228	878
0	44771	1643.390487173136	879
0	44807	1644.9307587155	880
0	44849	1646.391141612136	881
0	44869	1647.189752807746	882
0	44919	1649.109617790464	883
0	44925	1649.311907405408	884
0	44994	1652.23267319868	885
0	45041	1653.693056095316	886
0	45068	1654.828748407792	887
0	45110	1656.613821888588	888
0	45214	1660.54787902512	889
0	45285	1663.407444333784	890
0	45302	1663.915736371768	891
0	45307	1663.995728599255	892
0	45343	1665.376119268404	893
0	45433	1669.126574951112	894
0	45447	1669.757267958312	895
0	45512	1671.986140259776	896
0	45529	1672.678033751584	897
0	45583	1674.84570556844	898
0	45591	1675.019003043148	899
0	45675	1678.519565338128	900
0	45808	1683.424401494432	901
0	45877	1686.283966803096	902
0	45900	1687.281862717944	903
0	45951	1689.14353211176	904
0	46016	1691.663011407852	905
0	46033	1692.367107085996	906
0	46164	1697.504542994396	907
0	46187	1698.144157312731	908
0	46203	1698.964925891032	909
0	46242	1700.425308787668	910
0	46248	1700.581793346416	911
0	46278	1701.885691684304	912
0	46397	1706.300923963744	913
0	46547	1712.108371960756	914
0	46624	1715.029137754028	915
0	46690	1717.7391851984	916
0	46760	1720.598750507064	917
0	46910	1726.34047750324	918
0	46919	1726.712200927116	919
0	46979	1729.177446433056	920
0	46994	1729.632966720388	921
0	47027	1731.093349617024	922
0	47183	1736.934881203568	923
0	47254	1739.85564699684	924
0	47280	1740.615707667712	925
0	47348	1743.475272976376	926
0	47378	1744.236795686748	927
0	47499	1749.194403593704	928
0	47523	1750.078327273292	929
0	47650	1754.913534211032	930
0	47781	1760.301007549744	931
0	47793	1760.63266482836	932
0	47828	1761.76139044638	933
0	47903	1764.682156239652	934
0	47932	1765.915839850987	935
0	48010	1769.06330492956	936
0	48160	1774.93049137168	937
0	48201	1776.36521941274	938
0	48236	1777.790056680344	939
0	48349	1782.206750999284	940
0	48465	1786.587899689192	941
0	48528	1789.228317915	942
0	48540	1789.508665482464	943
0	48573	1790.9690483791	944
0	48604	1792.087883223664	945
0	48616	1792.429431275736	946
0	48646	1793.889814172372	947
0	48672	1794.7201461345	948
0	48764	1798.27096286228	949
1	0	0	0
1	189	3.460382896636	0
1	607	14.645078460435	1
1	694	16.106553945808	0
1	733	16.821492723416	1
1	755	17.371519865599	0
1	770	17.565844253707	1
1	822	18.63648578539	0
1	833	18.903826181127	1
1	854	19.157391851984	0
1	924	20.458289883033	1
1	951	20.984977656268	0
1	985	21.763391489791	1
1	996	21.946992943615	0
1	1017	22.231385830443	1
1	1058	22.973511796102	0
1	1059	22.998346178091	1
1	1078	23.515640047441	0
1	1087	23.677061167347	1
1	1117	24.09508704265	0
1	1248	27.291249509607	1
1	1266	27.482522107119	0
1	1278	27.731884202267	1
1	1284	27.788524530159	0
1	1319	28.556215429398	1
1	1327	28.736924846511	0
1	1373	29.821181349189	1
1	1394	30.342087415783	0
1	1413	30.709290323431	1
1	1448	31.368681361884	0
1	1475	32.169673220067	1
1	1486	32.531822605884	0
1	1521	33.131688507414	1
1	1523	33.254660274336	0
1	1569	34.158207359901	1
1	1597	34.70033561124	0
1	1619	35.279782606449	1
1	1629	35.588806622628	0
1	1654	36.061218033111	1
1	1659	36.139797413335	0
1	1679	36.550821909975	1
1	1731	37.835469054607	0
1	1735	37.953105119274	1
1	1765	38.5095724159	0
1	1772	38.667217670918	1
1	1785	38.973220093958	0
1	1809	39.579489873291	1
1	1821	39.92162041031	0
1	1839	40.29425865553	1
1	1864	40.931970599883	0
1	1891	41.526782979582	1
1	1903	41.780348650439	0
1	1943	42.553376925683	1
1	1951	42.704002373187	0
1	1965	42.979531062671	1
1	1994	43.716518169683	0
1	2027	44.439355838135	1
1	2035	44.639913959103	0
1	2059	45.313119289791	1
1	2079	45.81148689908	0
1	2081	45.885031175039	1
1	2087	45.915870000352	0
1	2116	46.773502186427	1
1	2118	46.807854336923	0
1	2142	47.324492977134	1
1	2147	47.369283106357	0
1	2151	47.499479267767	1
1	2168	47.753044938624	0
1	2216	49.020164618406	1
1	2231	49.3570866946	0
1	2243	49.694267979699	1
1	2263	50.157915657757	0
1	2275	50.359044576431	1
1	2276	50.422054900071	0
1	2300	51.106315974109	1
1	2304	51.154650876335	0
1	2341	52.116666163682	1
1	2383	52.965044214238	0
1	2390	53.168019398158	1
1	2391	53.189464319586	0
1	2392	53.218609885095	1
1	2402	53.472175555952	0
1	2417	53.888697936986	1
1	2424	54.036243242331	0
1	2428	54.075416669607	1
1	2446	54.573784278896	0
1	2457	54.901213733482	1
1	2496	55.824609522902	0
1	2509	56.035266241568	1
1	2523	56.331740864616	0
1	2547	56.996182462879	1
1	2549	57.100565564151	0
1	2581	57.992549900722	1
1	2604	58.456565359515	0
1	2605	58.553978670156	1
1	2624	58.937740502423	0
1	2685	60.541782258399	1
1	2703	60.922489389832	0
1	2718	61.342611221556	1
1	2722	61.377331152787	0
1	2730	61.60675046387	1
1	2732	61.626038761077	0
1	2737	61.797305811087	1
1	2743	61.826036475397	0
1	2763	62.339346440134	1
1	2778	62.710295263755	0
1	2784	62.837714049423	1
1	2839	64.149739778037	0
1	2847	64.374159883385	1
1	2853	64.656871119751	0
1	2878	65.22093880613	1
1	2895	65.758479842695	0
1	2942	67.009305086701	1
1	2949	67.218862739331	0
1	2962	67.516436428415	1
1	2972	67.71723034862	0
1	2973	67.736652958054	1
1	2977	67.770002099272	0
1	2994	68.28526112795	1
1	3010	68.696144850472	0
1	3042	69.641260923314	1
1	3056	70.122436066222	0
1	3107	71.373450117671	1
1	3129	71.956983244719	0
1	3135	72.107184953631	1
1	3153	72.562026716586	0
1	3160	72.810734324876	1
1	3169	73.010732039196	0
1	3179	73.235567045743	1
1	3186	73.4891327166	0
1	3198	73.894990827554	1
1	3247	75.334435341836	0
1	3272	75.84156668355	1
1	3287	76.348698025264	0
1	3311	76.943175406494	1
1	3330	77.441543015783	0
1	3367	78.40355830313	1
1	3372	78.451302849793	0
1	3376	78.647044436905	1
1	3386	78.901925912419	0
1	3387	78.954697663071	1
1	3400	79.208263333928	0
1	3404	79.309913898864	1
1	3418	79.880840414271	0
1	3433	80.211440298275	1
1	3440	80.362308809055	0
1	3444	80.419818140829	1
1	3472	81.307131630021	0
1	3534	83.141678808518	1
1	3553	83.746722280385	0
1	3568	84.195427602995	1
1	3581	84.673828280399	0
1	3639	86.519130905635	1
1	3651	86.702208004888	0
1	3673	87.533393589063	1
1	3684	87.78695925992	0
1	3713	88.626238579582	1
1	3725	88.932449042347	0
1	3748	89.635998413592	1
1	3768	90.086621476218	0
1	3778	90.392958897727	1
1	3784	90.646524568584	0
1	3792	91.06553597807	1
1	3816	91.547004372854	0
1	3842	92.49182719382	1
1	3848	92.543739591432	0
1	3916	94.931417844184	1
1	3929	95.411473108221	0
1	3948	95.858523844198	1
1	3982	96.92488828134	0
1	4013	97.886903568687	1
1	4027	98.329338732223	0
1	4044	98.971654823719	1
1	4055	99.225220494576	0
1	4076	100.117144606146	1
1	4122	101.271317040017	0
1	4135	101.831220132383	1
1	4144	102.08478580324	0
1	4161	102.731699936653	1
1	4196	103.728435155231	0
1	4281	106.59616867202	1
1	4327	108.109583845139	0
1	4363	109.514034296022	1
1	4391	110.409916058375	0
1	4458	112.456012603816	1
1	4477	113.269481367039	0
1	4529	114.91313071903	1
1	4537	115.135314523732	0
1	4656	119.294279408938	1
1	4701	120.889634386442	0
1	4715	121.594611622174	1
1	4722	121.751397524152	0
1	4804	124.454176930838	1
1	4811	124.672163317424	0
1	4862	126.320010087531	1
1	4870	126.339298384738	0
1	5029	132.074329950241	1
1	5054	132.936093087951	0
1	5133	135.856858881223	1
1	5165	136.639735160179	0
1	5184	137.523993948537	1
1	5195	137.815609387148	0
1	5369	144.12078865175	1
1	5395	144.9782654332	0
1	5467	147.824430723978	1
1	5475	147.837830741864	0
1	5508	149.000304950947	1
1	5525	149.498672560236	0
1	5705	156.162960996999	1
1	5749	157.421318128174	0
1	5785	159.022526305663	1
1	5795	159.27609197652	0
1	5834	160.683368124035	1
1	5848	161.181735733324	0
1	6057	168.606013691973	1
1	6094	169.94403311314	0
1	6107	170.460787540319	1
1	6115	170.714353211176	0
1	6156	172.366431297123	1
1	6221	174.325181803048	0
1	6403	181.128728676939	1
1	6416	181.627096286228	0
1	6426	181.899048774975	1
1	6434	182.152614445832	0
1	6534	185.509877366847	1
1	6541	185.635562745617	0
1	6732	192.811791850027	1
1	6749	193.310159459316	0
1	6750	193.337310009631	1
1	6836	196.273842807469	0
1	6857	196.820258309416	1
1	6917	199.15169104586	0
1	7063	204.494855023115	1
1	7085	204.993222632404	0
1	7144	207.458538371268	1
1	7226	210.336386609659	0
1	7389	216.177918196203	1
1	7444	218.136668702128	0
1	7536	221.521082173458	1
1	7560	222.186528767128	0
1	7744	229.321364265927	1
1	7760	229.819731875216	0
1	7854	233.371224330927	1
1	7861	233.624790001784	0
1	8060	241.004427439015	1
1	8103	242.203485927776	0
1	8165	244.809485565583	1
1	8178	245.06305123644	0
1	8403	253.388181491575	1
1	8414	253.641747162432	0
1	8480	256.247746800239	1
1	8492	256.501312471096	0
1	8715	264.826442726231	1
1	8753	266.329304291116	0
1	8791	267.686008034895	1
1	8796	267.789687187752	0
1	9059	277.513999854915	1
1	9075	278.012367464204	0
1	9103	278.974382751551	1
1	9120	279.47275036084	0
1	9378	289.197063028003	1
1	9402	289.695430637292	0
1	9418	290.657445924639	1
1	9483	292.616196430564	0
1	9701	300.880126201091	1
1	9714	301.37849381038	0
1	9786	303.800891994363	1
1	9821	305.113922718384	0
1	10023	312.563189374179	1
1	10037	313.061556983468	0
1	10123	316.298618282183	1
1	10131	316.55218395304	0
1	10336	324.246252547267	1
1	10400	326.205003053192	0
1	10434	327.736879516839	1
1	10445	327.990445187696	0
1	10692	337.389698616991	1
1	10712	337.88806622628	0
1	10741	339.175140751495	1
1	10749	339.348449122916	0
1	11011	349.072761790079	1
1	11030	349.571129399368	0
1	11046	350.533144686715	1
1	11056	350.866967657008	0
1	11329	360.755824963167	1
1	11342	361.254192572456	0
1	11363	362.051663220807	1
1	11379	362.526506551429	0
1	11639	372.438888136255	1
1	11656	372.937255745544	0
1	11672	373.711202115228	1
1	11688	373.905135752362	0
1	11960	384.121951309343	1
1	11984	385.089831316161	0
1	12284	396.27452687996	1
1	12287	396.30338209172	0
1	12581	407.488077655519	1
1	12610	408.058273830288	0
1	12905	419.242969394087	1
1	12915	419.496535064944	0
1	13210	430.681230628743	1
1	13220	430.9347962996	0
1	13522	442.119491863399	1
1	13563	443.665034835166	0
1	13862	454.849730398965	1
1	13944	457.639463750432	0
1	14243	468.824159314231	1
1	14260	469.32252692352	0
1	14553	480.507222487319	1
1	14685	485.266537164216	0
1	14982	496.451232728015	1
1	15080	499.990567752876	0
1	15386	511.175263316675	1
1	15400	511.673630925964	0
1	15698	522.858326489763	1
1	15704	522.996468947773	0
1	16005	534.181164511572	1
1	16017	534.597784995822	0
1	16319	545.782480559621	1
1	16378	548.176973954824	0
1	16674	559.361669518623	1
1	16682	559.61523518948	0
1	16975	570.799930753279	1
1	16982	571.053496424136	0
1	17274	582.238191987935	1
1	17284	582.491757658792	0
1	17572	593.676453222591	1
1	17585	593.930018893448	0
1	17871	605.114714457247	1
1	17885	605.368280128104	0
1	18172	616.552975691903	1
1	18191	616.80654136276	0
1	18482	627.991236926559	1
1	18490	628.244802597416	0
1	18784	639.429498161215	1
1	18791	639.683063832072	0
1	19086	650.867759395871	1
1	19111	651.87038900302	0
1	19404	663.055084566819	1
1	19415	663.553452176108	0
1	19705	674.738147739907	1
1	19845	679.716978153368	0
1	20137	690.901673717167	1
1	20217	694.014804696688	0
1	20508	705.199500260487	1
1	20515	705.33227081479	0
1	20799	716.516966378589	1
1	20839	717.58761935164	0
1	21127	728.772314915439	1
1	21137	729.005204456593	0
1	21428	740.189900020392	1
1	21489	742.414128594452	0
1	21779	753.598824158251	1
1	21918	758.478340457448	0
1	22211	769.663036021247	1
1	22221	770.161403630536	0
1	22506	781.346099194335	1
1	22561	783.30484970026	0
1	22846	794.489545264059	1
1	22895	796.448295769984	0
1	23180	807.632991333783	1
1	23205	808.397417043248	0
1	23490	819.582112607047	1
1	23498	819.81442211616	0
1	23784	830.999117679959	1
1	23795	831.27393951256	0
1	24085	842.458635076359	1
1	24096	842.712200747216	0
1	24383	853.896896311015	1
1	24391	854.150461981872	0
1	24676	865.335157545671	1
1	24713	866.546674808512	0
1	24995	877.731370372311	1
1	25008	878.2297379816	0
1	25299	889.414433545399	1
1	25384	892.83356694796	0
1	25674	904.018262511759	1
1	25693	904.516630121048	0
1	25977	915.701325684847	1
1	26011	917.06089877248	0
1	26298	928.245594336279	1
1	26308	928.499160007136	0
1	26587	939.683855570935	1
1	26601	939.937421241792	0
1	26884	951.122116805591	1
1	26897	951.375682476448	0
1	27179	962.560378040247	1
1	27195	962.931945986488	0
1	27483	974.116641550287	1
1	27491	974.25220494576	0
1	27774	985.436900509559	1
1	27781	985.690466180416	0
1	28072	996.875161744215	1
1	28079	997.128727415072	0
1	28362	1008.313422978871	1
1	28375	1008.566988649728	0
1	28660	1019.751684213527	1
1	28703	1021.347261851928	0
1	28993	1032.531957415727	1
1	29007	1033.030325025016	0
1	29291	1044.215020588815	1
1	29311	1044.713388198104	0
1	29594	1055.898083761903	1
1	29660	1058.466881053697	0
1	29950	1069.651576617496	1
1	29987	1071.000280337552	0
1	30276	1082.184975901351	1
1	30292	1082.68334351064	0
1	30577	1093.868039074439	1
1	30591	1094.353947909648	0
1	30870	1105.538643473447	1
1	30883	1105.792209144304	0
1	31168	1116.976904708103	1
1	31181	1117.23047037896	0
1	31467	1128.415165942759	1
1	31474	1128.668731613616	0
1	31762	1139.853427177415	1
1	31770	1140.106992848272	0
1	32056	1151.291688412071	1
1	32131	1154.242105445804	0
1	32420	1165.426801009603	1
1	32435	1165.779865618714	0
1	32718	1176.964561182513	1
1	32783	1179.068614688616	0
1	33060	1190.253310252415	1
1	33082	1190.751677861704	0
1	33366	1201.936373425503	1
1	33379	1202.434741034792	0
1	33663	1213.619436598591	1
1	33679	1214.11780420788	0
1	33961	1225.302499771679	1
1	33987	1225.893952108192	0
1	34273	1237.078647671991	1
1	34283	1237.332213342848	0
1	34561	1248.516908906647	1
1	34575	1248.770474577504	0
1	34860	1259.955170141303	1
1	34867	1260.20873581216	0
1	35156	1271.393431375959	1
1	35163	1271.646997046816	0
1	35454	1282.831692610615	1
1	35465	1283.085258281472	0
1	35750	1294.269953845271	1
1	35795	1295.899246419496	0
1	36078	1307.083941983295	1
1	36129	1308.821346059448	0
1	36414	1320.006041623247	1
1	36496	1323.119172602768	0
1	36783	1334.303868166567	1
1	36793	1334.557433837424	0
1	37080	1345.742129401223	1
1	37090	1345.99569507208	0
1	37372	1357.180390635879	1
1	37456	1360.2935216154	0
1	37739	1371.478217179199	1
1	37749	1371.731782850056	0
1	38034	1382.916478413855	1
1	38044	1383.170044084712	0
1	38327	1394.354739648511	1
1	38338	1394.608305319368	0
1	38629	1405.793000883167	1
1	38643	1406.046566554024	0
1	38926	1417.231262117823	1
1	38933	1417.48482778868	0
1	39221	1428.669523352479	1
1	39279	1430.880580523485	0
1	39559	1442.065276087284	1
1	39596	1443.220915566656	0
1	39882	1454.405611130455	1
1	39889	1454.659176801312	0
1	40175	1465.843872365111	1
1	40388	1474.065959809088	0
1	40674	1485.250655372887	1
1	40767	1488.669788775448	0
1	41052	1499.854484339247	1
1	41069	1500.352851948536	0
1	41357	1511.537547512335	1
1	41371	1511.850482974592	0
1	41658	1523.035178538391	1
1	41665	1523.288744209248	0
1	41947	1534.473439773047	1
1	41957	1534.727005443904	0
1	42244	1545.911701007703	1
1	42255	1546.16526667856	0
1	42537	1557.349962242359	1
1	42583	1558.768167813976	0
1	42868	1569.952863377775	1
1	42957	1573.371996780336	0
1	43243	1584.556692344135	1
1	43286	1586.199180999856	0
1	43569	1597.383876563655	1
1	43600	1598.198506023148	0
1	43883	1609.383201586947	1
1	43956	1611.935268777832	0
1	44241	1623.119964341631	1
1	44252	1623.373530012488	0
1	44538	1634.558225576287	1
1	44552	1634.811791247144	0
1	44835	1645.996486810943	1
1	44843	1646.2500524818	0
1	45129	1657.434748045599	1
1	45190	1659.53458768186	0
1	45472	1670.719283245659	1
1	45502	1671.711846825482	0
1	45789	1682.896542389281	1
1	45793	1682.900714028036	0
1	46076	1694.085409591835	1
1	46125	1696.04416009776	0
1	46416	1707.228855661559	1
1	46541	1712.020054581072	0
1	46823	1723.204750144871	1
1	46836	1723.458315815728	0
1	47121	1734.643011379527	1
1	47132	1734.896577050384	0
1	47415	1746.081272614183	1
1	47425	1746.33483828504	0
1	47711	1757.519533848839	1
1	47753	1758.99497865629	0
1	48041	1770.179674220089	1
1	48088	1771.984070722832	0
1	48368	1783.168766286631	1
1	48456	1786.368752606336	0
1	48742	1797.553448170135	1
1	48752	1797.807013840992	0
2	0	0	0
2	161	2	1
2	174	2.722837668452	2
2	177	2.903547085565	3
2	186	3.445675336904	4
2	195	3.626384754017	5
2	204	4.168513005356	6
2	207	4.349222422469	7
2	210	4.529931839582	8
2	222	4.891350673808	9
2	228	5.072060090921	10
2	240	5.61418834226	11
2	243	5.636797159617	12
2	249	5.975607176486	13
2	252	6.156316593599	14
2	264	6.517735427825	15
2	271	6.698444844938	16
2	277	7.059863679164	17
2	289	7.42128251339	18
2	295	7.601991930503	19
2	304	7.782701347616	20
2	311	7.963410764729	21
2	314	8.144120181842	22
2	333	8.505539016068	23
2	337	8.686248433181	24
2	343	8.866957850294	25
2	349	9.047667267407	26
2	357	9.273594319234	27
2	363	9.409086101633	28
2	377	9.789299111852	29
2	383	9.951214352972	30
2	391	10.312633187198	31
2	402	10.493342604311	32
2	421	11.026970244978	33
2	425	11.03547085565	34
2	430	11.071080691062	35
2	444	11.396889689876	36
2	513	12.910391478851	37
2	536	13.276262739496	38
2	559	13.737611501673	39
2	612	14.64965919791	40
2	648	15.372496866362	41
2	675	15.853029935928	42
2	682	15.914625117701	43
2	718	16.547188638468	44
2	726	16.637462786153	45
2	732	16.818172203266	46
2	734	16.821492723416	47
2	774	17.578598223704	48
2	804	18.26384754017	49
2	820	18.625266374396	50
2	841	18.914394109244	51
2	845	18.986685208622	52
2	859	19.167394625735	53
2	873	19.528813459961	54
2	886	19.709522877074	55
2	909	20.183985798085	56
2	927	20.5502878515	57
2	934	20.613069962639	58
2	955	21.093603032205	59
2	959	21.155198213978	60
2	984	21.733459794118	61
2	992	21.87803588243	62
2	1028	22.420164133769	63
2	1047	22.781582967995	64
2	1061	22.998346178091	65
2	1071	23.323711219334	66
2	1092	23.68513005356	67
2	1100	23.820782957702	68
2	1103	23.865839470673	69
2	1129	24.407967722012	70
2	1144	24.769386556238	71
2	1167	25.130805390464	72
2	1174	25.311514807577	73
2	1181	25.49222422469	74
2	1188	25.672933641803	75
2	1193	25.853643058916	76
2	1207	26.215061893142	77
2	1210	26.395771310255	78
2	1239	26.937899561594	79
2	1246	27.118608978707	80
2	1251	27.29931839582	81
2	1265	27.480027812933	82
2	1289	27.841446647159	83
2	1348	29.287121984063	84
2	1352	29.467831401176	85
2	1361	29.648540818289	86
2	1367	29.694840460862	87
2	1420	30.91350673808	88
2	1445	31.274925572306	89
2	1453	31.455634989419	90
2	1470	31.997763240758	91
2	1489	32.539891492097	92
2	1499	32.723319709532	93
2	1508	32.901310326323	94
2	1510	32.951439280344	95
2	1514	33.009722533614	96
2	1532	33.443438577662	97
2	1572	34.166276246114	98
2	1582	34.346985663227	99
2	1600	34.708404497453	100
2	1603	34.731174436553	101
2	1609	34.889113914566	102
2	1646	35.836638054308	103
2	1655	36.061218033111	104
2	1684	36.696208085696	105
2	1700	37.057626919922	106
2	1722	37.599755171261	107
2	1750	38.322592839713	108
2	1753	38.36797159617	109
2	1762	38.503302256826	110
2	1776	38.684011673939	111
2	1780	38.864721091052	112
2	1795	39.226139925278	113
2	1815	39.768268176617	114
2	1825	39.94897759373	115
2	1856	40.671815262182	116
2	1923	42.072265330796	117
2	1928	42.117490599086	118
2	1940	42.478909433312	119
2	1958	42.840328267538	120
2	1984	43.382456518877	121
2	2021	44.286003604442	122
2	2030	44.466713021555	123
2	2038	44.647422438668	124
2	2041	44.828131855781	125
2	2063	45.37026010712	126
2	2066	45.550969524233	127
2	2071	45.641565915404	128
2	2075	45.731678941346	129
2	2082	45.885031175039	130
2	2086	45.912388358459	131
2	2096	46.185697060718	132
2	2104	46.454516609798	133
2	2121	46.815935444024	134
2	2132	47.105050957984	135
2	2137	47.17735427825	136
2	2152	47.499479267767	137
2	2155	47.51330514906	138
2	2165	47.719482529589	139
2	2176	47.900191946702	140
2	2182	48.080901363815	141
2	2189	48.261610780928	142
2	2195	48.442320198041	143
2	2215	48.98444844938	144
2	2217	49.020164618406	145
2	2226	49.278363075021	146
2	2229	49.345867283606	147
2	2248	49.707286117832	148
2	2258	49.924116642858	149
2	2279	50.430123786284	150
2	2298	50.972252037623	151
2	2315	51.333670871849	152
2	2319	51.514380288962	153
2	2345	52.237217957414	154
2	2368	52.743182327732	155
2	2398	53.321474460092	156
2	2410	53.682893294318	157
2	2416	53.863602711431	158
2	2427	54.044312128544	159
2	2431	54.225021545657	160
2	2454	54.767149796996	161
2	2488	55.562248012606	162
2	2491	55.670696882561	163
2	2499	55.851406299674	164
2	2505	56.032115716787	165
2	2530	56.551957394255	166
2	2546	56.935662802352	167
2	2548	56.996182462879	168
2	2552	57.116372219465	169
2	2563	57.477791053691	170
2	2584	58.01991930503	171
2	2598	58.38131369748	172
2	2608	58.562047556369	173
2	2623	58.923466390595	174
2	2641	59.284885224821	175
2	2649	59.465594641934	176
2	2652	59.646304059047	177
2	2670	60.188754553872	178
2	2694	60.730560561725	179
2	2712	61.200379382354	180
2	2719	61.342611221556	181
2	2735	61.63410764729	182
2	2762	62.176235898629	183
2	2764	62.339346440134	184
2	2768	62.356945315742	185
2	2787	62.899073567081	186
2	2816	63.621911235533	187
2	2825	63.825551713489	188
2	2831	63.983330069759	189
2	2834	64.019445067228	190
2	2842	64.164039486872	191
2	2846	64.344748903985	192
2	2866	64.886877155324	193
2	2875	65.067586572437	194
2	2881	65.24829598955	195
2	2904	65.971133658002	196
2	2908	66.151843075115	197
2	2914	66.332552492228	198
2	2929	66.667330871628	199
2	2938	66.838510752102	200
2	2941	66.874680743567	201
2	2956	67.416808994906	202
2	2965	67.597518412019	203
2	2980	67.778227829132	204
2	2983	67.958937246245	205
2	2993	68.139646663358	206
2	2995	68.28526112795	207
2	2999	68.320356080471	208
2	3013	68.86248433181	209
2	3117	71.573125588505	210
2	3120	71.753835005618	211
2	3127	71.934544422731	212
2	3146	72.47664212185	213
2	3149	72.47667267407	214
2	3165	72.838091508296	215
2	3192	73.560929176748	216
2	3199	73.894990827554	217
2	3202	73.922348010974	218
2	3214	74.464476262313	219
2	3225	74.73594319234	220
2	3231	74.825895096539	221
2	3250	75.368023347878	222
2	3252	75.3707421482	223
2	3256	75.548732764991	224
2	3259	75.729442182104	225
2	3284	76.271570433443	226
2	3293	76.452279850556	227
2	3299	76.632989267669	228
2	3305	76.813698684782	229
2	3334	77.536536353234	230
2	3350	78.078664604573	231
2	3353	78.114773491598	232
2	3359	78.259374021686	233
2	3370	78.440083438799	234
2	3377	78.647044436905	235
2	3391	78.982211690138	236
2	3405	79.309913898864	237
2	3414	79.524339941477	238
2	3417	79.70504935859	239
2	3424	80.066468192816	240
2	3447	80.427887027042	241
2	3451	80.608596444155	242
2	3455	80.789305861268	243
2	3461	80.933839176472	244
2	3465	80.970015278381	245
2	3491	81.873562363946	246
2	3497	82.009537511574	247
2	3500	82.054271781059	248
2	3507	82.234981198172	249
2	3513	82.415690615285	250
2	3521	82.596400032398	251
2	3530	82.957818866624	252
2	3533	83.138528283737	253
2	3551	83.680656535076	254
2	3556	83.752904861346	255
2	3565	84.042075369302	256
2	3580	84.584203620641	257
2	3584	84.764913037754	258
2	3592	84.945622454867	259
2	3607	85.424856039984	260
2	3614	85.646334671191	261
2	3632	86.210588374658	262
2	3635	86.391297791771	263
2	3654	86.752716625997	264
2	3657	86.93342604311	265
2	3659	86.979725685683	266
2	3674	87.533393589063	267
2	3687	87.836973128675	268
2	3690	88.017682545788	269
2	3699	88.198391962901	270
2	3714	88.626238579582	271
2	3717	88.74052021424	272
2	3719	88.754625103108	273
2	3734	89.283131830808	274
2	3741	89.463357882692	275
2	3749	89.635998413592	276
2	3753	89.644067299805	277
2	3767	90.005486134031	278
2	3771	90.186195551144	279
2	3777	90.366904968257	280
2	3787	90.728323802483	281
2	3793	91.06553597807	282
2	3799	91.089742636709	283
2	3807	91.270452053822	284
2	3810	91.451161470935	285
2	3827	91.812580305161	286
2	3831	91.993289722274	287
2	3837	92.210101915968	288
2	3845	92.535417973613	289
2	3854	92.716127390726	290
2	3863	92.919928990425	291
2	3866	93.077546224952	292
2	3879	93.619674476291	293
2	3885	93.981093310517	294
2	3902	94.342512144743	295
2	3905	94.523221561856	296
2	3908	94.703930978969	297
2	3921	95.029167600842	298
2	3924	95.065349813195	299
2	3949	95.858523844198	300
2	3952	95.874988804348	301
2	3955	95.96889689876	302
2	3958	96.149606315873	303
2	3970	96.511025150099	304
2	3973	96.556726150042	305
2	3976	96.691734567212	306
2	3979	96.872443984325	307
2	3985	97.053153401438	308
2	3999	97.391643296699	309
2	4006	97.595281652777	310
2	4009	97.77599106989	311
2	4012	97.848233285716	312
2	4014	97.886903568687	313
2	4018	97.956700487003	314
2	4021	98.137409904116	315
2	4025	98.318119321229	316
2	4043	98.860247572568	317
2	4045	98.971654823719	318
2	4052	99.221666406794	319
2	4061	99.402375823907	320
2	4075	99.944504075246	321
2	4077	100.117144606146	322
2	4080	100.125213492359	323
2	4083	100.193523309659	324
2	4086	100.305922909472	325
2	4102	100.66729897059	326
2	4105	100.667341743698	327
2	4121	101.209469995037	328
2	4128	101.39017941215	329
2	4131	101.570888829263	330
2	4134	101.751598246376	331
2	4141	101.932307663489	332
2	4150	102.293726497715	333
2	4153	102.474435914828	334
2	4157	102.655145331941	335
2	4171	103.016564166167	336
2	4177	103.19727358328	337
2	4189	103.558692417506	338
2	4191	103.587386707172	339
2	4199	103.739401834619	340
2	4202	103.830320469276	341
2	4225	104.642948920184	342
2	4237	105.00436775441	343
2	4240	105.185077171523	344
2	4249	105.546496005749	345
2	4258	105.907914839975	346
2	4269	106.269333674201	347
2	4287	106.81146192554	348
2	4299	107.353590176879	349
2	4305	107.467117628893	350
2	4311	107.534299593992	351
2	4314	107.715009011105	352
2	4320	107.895718428218	353
2	4326	108.076427845331	354
2	4349	108.799265513783	355
2	4356	109.124496025212	356
2	4359	109.160684348009	357
2	4362	109.341393765122	358
2	4384	110.064231433574	359
2	4390	110.244940850687	360
2	4394	110.4256502678	361
2	4397	110.606359684913	362
2	4403	110.787069102026	363
2	4410	110.967778519139	364
2	4413	111.10391478851	365
2	4419	111.148487936252	366
2	4422	111.329197353365	367
2	4428	111.509906770478	368
2	4443	111.871325604704	369
2	4446	111.943561710086	370
2	4449	112.052035021817	371
2	4461	112.594163273156	372
2	4467	112.774872690269	373
2	4470	112.955582107382	374
2	4480	113.317000941608	375
2	4483	113.497710358721	376
2	4492	113.678419775834	377
2	4495	113.859129192947	378
2	4501	114.03983861006	379
2	4522	114.740711948127	380
2	4525	114.76262739496	381
2	4528	114.762676278512	382
2	4535	115.124095112738	383
2	4546	115.666223364077	384
2	4552	115.84693278119	385
2	4560	116.027642198303	386
2	4563	116.208351615416	387
2	4580	116.750479866755	388
2	4588	117.111898700981	389
2	4602	117.473317535207	390
2	4605	117.581693079834	391
2	4608	117.65402695232	392
2	4624	118.196155203659	393
2	4627	118.376864620772	394
2	4633	118.557574037885	395
2	4645	118.918992872111	396
2	4648	119.099702289224	397
2	4657	119.294279408938	398
2	4661	119.46112112345	399
2	4670	119.822539957676	400
2	4673	120.003249374789	401
2	4684	120.364668209015	402
2	4690	120.400758764708	403
2	4708	121.087505877467	404
2	4711	121.26821529458	405
2	4714	121.448924711693	406
2	4719	121.629634128806	407
2	4743	122.171762380145	408
2	4752	122.533181214371	409
2	4755	122.713890631484	410
2	4763	123.07530946571	411
2	4769	123.219824449582	412
2	4774	123.256018882823	413
2	4794	123.978856551275	414
2	4800	124.340275385501	415
2	4808	124.520984802614	416
2	4814	124.701694219727	417
2	4826	125.063113053953	418
2	4832	125.243822471066	419
2	4835	125.424531888179	420
2	4849	125.966660139518	421
2	4852	126.038890134456	422
2	4861	126.147369556631	423
2	4868	126.328078973744	424
2	4905	127.773754310648	425
2	4927	128.677301396213	426
2	4930	128.85795581933	427
2	4936	129.038720230439	428
2	4953	129.580848481778	429
2	4961	129.764276699213	430
2	4965	129.942267316004	431
2	4968	130.122976733117	432
2	4994	131.026523818682	433
2	5005	131.234743459308	434
2	5009	131.387942652908	435
2	5018	131.677021504204	436
2	5021	131.749361487134	437
2	5033	132.11078032136	438
2	5036	132.291489738473	439
2	5039	132.472199155586	440
2	5042	132.652908572699	441
2	5060	133.195036824038	442
2	5063	133.375746241151	443
2	5074	133.556455658264	444
2	5080	133.91787449249	445
2	5091	134.279293326716	446
2	5094	134.460002743829	447
2	5100	134.640712160942	448
2	5120	135.363549829394	449
2	5126	135.544259246507	450
2	5145	136.267096914959	451
2	5157	136.561494905829	452
2	5159	136.619899355674	453
2	5163	136.628515749185	454
2	5174	137.170644000524	455
2	5180	137.315152873952	456
2	5185	137.523993948537	457
2	5189	137.53206283475	458
2	5198	137.893481668976	459
2	5201	138.074191086089	460
2	5238	139.33915700588	461
2	5243	139.519866422993	462
2	5251	139.881285257219	463
2	5254	140.061994674332	464
2	5257	140.134218558826	465
2	5260	140.198292065446	466
2	5263	140.242704091445	467
2	5290	141.14625117701	468
2	5293	141.326960594123	469
2	5299	141.688379428349	470
2	5308	142.049798262575	471
2	5317	142.230507679688	472
2	5334	142.772635931027	473
2	5337	142.9532842437	474
2	5340	142.95334534814	475
2	5343	143.134054765253	476
2	5346	143.314764182366	477
2	5353	143.495473599479	478
2	5365	143.856892433705	479
2	5368	144.037601850818	480
2	5370	144.12078865175	481
2	5374	144.218311267931	482
2	5377	144.399020685044	483
2	5380	144.579730102157	484
2	5389	144.941148936383	485
2	5412	145.528007289972	486
2	5416	145.663986604835	487
2	5422	145.844696021948	488
2	5425	146.025405439061	489
2	5441	146.5675336904	490
2	5447	146.748243107513	491
2	5453	147.109661941739	492
2	5456	147.290371358852	493
2	5459	147.471080775965	494
2	5462	147.47188638468	495
2	5466	147.651790193078	496
2	5507	148.916756112869	497
2	5513	149.097465529982	498
2	5516	149.278174947095	499
2	5518	149.280893747417	500
2	5522	149.458884364208	501
2	5534	149.820303198434	502
2	5537	150.001012615547	503
2	5540	150.18172203266	504
2	5548	150.543140866886	505
2	5554	150.723850283999	506
2	5557	150.904559701112	507
2	5575	151.265978535338	508
2	5578	151.410481298322	509
2	5581	151.446687952451	510
2	5584	151.627397369564	511
2	5590	151.808106786677	512
2	5609	152.530944455129	513
2	5615	152.711653872242	514
2	5624	153.073072706468	515
2	5630	153.434491540694	516
2	5636	153.615200957807	517
2	5656	154.229546983196	518
2	5659	154.338038626259	519
2	5665	154.699457460485	520
2	5668	154.745480703914	521
2	5671	154.880166877598	522
2	5695	155.783713963163	523
2	5704	156.145132797389	524
2	5712	156.325842214502	525
2	5718	156.506551631615	526
2	5738	157.048679882954	527
2	5755	157.771517551406	528
2	5758	157.952226968519	529
2	5761	158.132936385632	530
2	5767	158.313645802745	531
2	5770	158.382277863531	532
2	5778	158.675064636971	533
2	5784	158.855774054084	534
2	5818	159.940030556762	535
2	5845	161.02428705944	536
2	5851	161.204996476553	537
2	5876	162.019075023148	538
2	5885	162.289252979231	539
2	5888	162.469962396344	540
2	5902	162.83138123057	541
2	5905	163.012090647683	542
2	5925	163.915637733248	543
2	5928	164.096347150361	544
2	5957	164.999894235926	545
2	5960	165.180603653039	546
2	5968	165.505809722692	547
2	5971	165.542022487265	548
2	5977	165.655872182765	549
2	5980	165.722731904378	550
2	5986	166.084150738604	551
2	5989	166.264860155717	552
2	5998	166.626278989943	553
2	6004	166.987697824169	554
2	6021	167.710535492621	555
2	6032	167.891244909734	556
2	6064	168.794791995299	557
2	6079	169.336920246638	558
2	6082	169.517629663751	559
2	6088	169.698339080864	560
2	6091	169.879048497977	561
2	6100	170.05975791509	562
2	6108	170.460787540319	563
2	6112	170.601886166429	564
2	6118	170.782595583542	565
2	6134	171.144014417768	566
2	6143	171.505433251994	567
2	6146	171.686142669107	568
2	6149	171.86685208622	569
2	6157	172.366431297123	570
2	6160	172.408980337559	571
2	6169	172.770399171785	572
2	6181	172.951108588898	573
2	6190	173.312527423124	574
2	6193	173.493236840237	575
2	6209	173.963006777314	576
2	6212	174.035365091576	577
2	6236	174.938912177141	578
2	6242	175.119621594254	579
2	6245	175.300331011367	580
2	6248	175.48104042848	581
2	6259	175.815982523564	582
2	6262	175.842459262706	583
2	6265	176.023168679819	584
2	6268	176.203878096932	585
2	6271	176.384587514045	586
2	6277	176.565296931158	587
2	6280	176.566263661616	588
2	6293	176.926715765384	589
2	6296	177.107425182497	590
2	6308	177.468844016723	591
2	6314	177.830262850949	592
2	6317	178.010972268062	593
2	6320	178.191681685175	594
2	6344	178.914519353627	595
2	6347	179.09522877074	596
2	6361	179.601138147062	597
2	6370	179.818066439192	598
2	6373	179.998775856305	599
2	6379	180.179485273418	600
2	6390	180.360194690531	601
2	6393	180.540904107644	602
2	6399	180.90232294187	603
2	6402	181.083032358983	604
2	6407	181.263741776096	605
2	6413	181.625160610322	606
2	6418	181.665505973682	607
2	6422	181.805870027435	608
2	6427	181.899048774975	609
2	6431	181.986579444548	610
2	6445	182.420203831936	611
2	6448	182.528707695887	612
2	6451	182.709417113	613
2	6457	183.070835947226	614
2	6472	183.432254781452	615
2	6474	183.502403051884	616
2	6477	183.612964198565	617
2	6488	183.974383032791	618
2	6491	184.155092449904	619
2	6494	184.335801867017	620
2	6506	184.697220701243	621
2	6512	184.877930118356	622
2	6530	185.239348952582	623
2	6533	185.420058369695	624
2	6539	185.600767786808	625
2	6564	186.504314872373	626
2	6567	186.685024289486	627
2	6570	186.865733706599	628
2	6573	187.046443123712	629
2	6576	187.227152540825	630
2	6579	187.407861957938	631
2	6585	187.476655140467	632
2	6588	187.588571375051	633
2	6615	188.492118460616	634
2	6645	189.576374963294	635
2	6653	190.05690803286	636
2	6666	190.479922048859	637
2	6681	190.877400886558	638
2	6689	191.022050300198	639
2	6698	191.202759717311	640
2	6701	191.383469134424	641
2	6725	192.467725637102	642
2	6733	192.811791850027	643
2	6737	192.829144471328	644
2	6740	193.009853888441	645
2	6743	193.190563305554	646
2	6751	193.337310009631	647
2	6772	193.732691556893	648
2	6775	193.913400974006	649
2	6778	194.094110391119	650
2	6787	194.455529225345	651
2	6793	194.750249459701	652
2	6799	194.816948059571	653
2	6811	195.35907631091	654
2	6816	195.539785728023	655
2	6822	195.720495145136	656
2	6825	195.901204562249	657
2	6828	196.081913979362	658
2	6834	196.262623396475	659
2	6845	196.515532256306	660
2	6848	196.624042230701	661
2	6858	196.820258309416	662
2	6862	196.985461064927	663
2	6900	198.431136401831	664
2	6932	199.515392904509	665
2	6940	199.926706951535	666
2	6964	200.7803588243	667
2	6967	200.961068241413	668
2	6973	201.322487075639	669
2	6976	201.503196492752	670
2	6982	201.683905909865	671
2	6988	201.864615326978	672
2	6997	202.045324744091	673
2	7009	202.226034161204	674
2	7015	202.406743578317	675
2	7021	202.58745299543	676
2	7024	202.768162412543	677
2	7027	202.948871829656	678
2	7030	203.129581246769	679
2	7033	203.310290663882	680
2	7039	203.491000080995	681
2	7044	203.610114316335	682
2	7093	205.257895497566	683
2	7097	205.298094252125	684
2	7106	205.660640938552	685
2	7120	206.382350754803	686
2	7132	206.743769589029	687
2	7135	206.924479006142	688
2	7138	207.105188423255	689
2	7141	207.285897840368	690
2	7149	207.466607257481	691
2	7157	207.791794995802	692
2	7160	207.828026091707	693
2	7172	208.00873550882	694
2	7199	209.297438098169	695
2	7201	209.336619875634	696
2	7208	209.454410845724	697
2	7214	209.635120262837	698
2	7220	209.996539097063	699
2	7223	210.177248514176	700
2	7237	210.610860680676	701
2	7249	210.900086182628	702
2	7261	211.442214433967	703
2	7272	211.984342685306	704
2	7281	212.345761519532	705
2	7287	212.526470936645	706
2	7289	212.559809980746	707
2	7302	212.887889770871	708
2	7313	213.249308605097	709
2	7316	213.42992636555	710
2	7319	213.43001802221	711
2	7327	213.708360709507	712
2	7334	213.791436856436	713
2	7337	213.972146273549	714
2	7343	214.152855690662	715
2	7349	214.514274524888	716
2	7367	215.417821610453	717
2	7388	216.140659278905	718
2	7392	216.248992050424	719
2	7395	216.321368696018	720
2	7401	216.502078113131	721
2	7404	216.571032417403	722
2	7410	216.682787530244	723
2	7416	216.863496947357	724
2	7438	217.947753450035	725
2	7441	218.128462867148	726
2	7447	218.309172284261	727
2	7452	218.489881701374	728
2	7467	219.032009952713	729
2	7473	219.212719369826	730
2	7485	219.574138204052	731
2	7491	219.754847621165	732
2	7494	219.935557038278	733
2	7497	220.116266455391	734
2	7500	220.20782957702	735
2	7506	220.296975872504	736
2	7509	220.477685289617	737
2	7512	220.65839470673	738
2	7518	221.019813540956	739
2	7527	221.200522958069	740
2	7530	221.381232375182	741
2	7540	221.561941792295	742
2	7551	221.887123420172	743
2	7554	221.923360626521	744
2	7563	222.284779460747	745
2	7581	223.188326546312	746
2	7598	223.844626736637	747
2	7607	224.091873631877	748
2	7619	224.634001883216	749
2	7622	224.706189105046	750
2	7633	224.995420717442	751
2	7639	225.176130134555	752
2	7648	225.537548968781	753
2	7654	225.718258385894	754
2	7663	226.260386637233	755
2	7686	227.163933722798	756
2	7689	227.344643139911	757
2	7692	227.481423896254	758
2	7695	227.52525478992	759
2	7706	227.706061974137	760
2	7720	228.08364211614	761
2	7723	228.248190225476	762
2	7729	228.428899642589	763
2	7732	228.609609059702	764
2	7735	228.790318476815	765
2	7745	229.321364265927	766
2	7748	229.332446728154	767
2	7757	229.69386556238	768
2	7763	229.874574979493	769
2	7777	230.344320474794	770
2	7780	230.416703230832	771
2	7783	230.597412647945	772
2	7792	230.958831482171	773
2	7798	231.118221055871	774
2	7801	231.139540899284	775
2	7807	231.320250316397	776
2	7813	231.681669150623	777
2	7816	231.862378567736	778
2	7822	232.223797401962	779
2	7827	232.404506819075	780
2	7844	232.946635070414	781
2	7847	233.127344487527	782
2	7850	233.163386159668	783
2	7853	233.30805390464	784
2	7869	233.933165566258	785
2	7882	234.211600990205	786
2	7888	234.573019824431	787
2	7897	234.755018215488	788
2	7906	235.11514807577	789
2	7909	235.295857492883	790
2	7915	235.657276327109	791
2	7929	235.982451844542	792
2	7932	236.018695161335	793
2	7949	236.741532829787	794
2	7952	236.9222422469	795
2	7973	237.645079915352	796
2	7979	238.006498749578	797
2	8003	238.72933641803	798
2	8009	238.801517529416	799
2	8012	238.910045835143	800
2	8018	239.090755252256	801
2	8021	239.271464669369	802
2	8027	239.452174086482	803
2	8030	239.632883503595	804
2	8033	239.813592920708	805
2	8036	239.994302337821	806
2	8042	240.175011754934	807
2	8068	241.259268257612	808
2	8080	241.62058321429	809
2	8088	241.801396508951	810
2	8094	241.982105926064	811
2	8097	242.028612534722	812
2	8100	242.162815343177	813
2	8106	242.34352476029	814
2	8109	242.524234177403	815
2	8115	242.885653011629	816
2	8121	243.066362428742	817
2	8126	243.247071845855	818
2	8132	243.427781262968	819
2	8149	244.331328348533	820
2	8155	244.439648899164	821
2	8158	244.512037765646	822
2	8164	244.692747182759	823
2	8166	244.809485565583	824
2	8181	245.234875434098	825
2	8184	245.415584851211	826
2	8187	245.596294268324	827
2	8190	245.665409694339	828
2	8193	245.777003685437	829
2	8215	246.438246172116	830
2	8219	246.499841353889	831
2	8222	246.680550771002	832
2	8225	246.861260188115	833
2	8234	247.222679022341	834
2	8239	247.258714584038	835
2	8245	247.403388439454	836
2	8251	247.76480727368	837
2	8263	248.126226107906	838
2	8272	248.668354359245	839
2	8284	249.029773193471	840
2	8287	249.210482610584	841
2	8290	249.302206853956	842
2	8299	249.57190144481	843
2	8310	250.077780268912	844
2	8313	250.114029696149	845
2	8333	250.843290728562	846
2	8337	251.017576781714	847
2	8343	251.198286198827	848
2	8352	251.559705033053	849
2	8363	251.921123867279	850
2	8366	252.101833284392	851
2	8387	252.896845953786	852
2	8390	252.939004013573	853
2	8393	253.005380369957	854
2	8402	253.366799204183	855
2	8408	253.547508621296	856
2	8420	253.908927455522	857
2	8426	254.089636872635	858
2	8431	254.217471912428	859
2	8434	254.270346289748	860
2	8437	254.451055706861	861
2	8440	254.631765123974	862
2	8446	254.812474541087	863
2	8449	254.9931839582	864
2	8452	255.173893375313	865
2	8467	255.71591163866	866
2	8470	255.716021626652	867
2	8473	255.896731043765	868
2	8476	256.077440460878	869
2	8481	256.247746800239	870
2	8489	256.438859295104	871
2	8498	256.619568712217	872
2	8501	256.80027812933	873
2	8504	256.980987546443	874
2	8507	257.161696963556	875
2	8527	257.703825214895	876
2	8530	257.884534632008	877
2	8536	258.245953466234	878
2	8544	258.534977323534	879
2	8547	258.60737230046	880
2	8553	258.788081717573	881
2	8565	259.330209968912	882
2	8577	259.691628803138	883
2	8588	260.212598332807	884
2	8591	260.233757054477	885
2	8597	260.41446647159	886
2	8606	260.775885305816	887
2	8620	261.318013557155	888
2	8623	261.354043008408	889
2	8641	262.040851225607	890
2	8647	262.22156064272	891
2	8656	262.763688894059	892
2	8659	262.944398311172	893
2	8673	263.305817145398	894
2	8682	263.486526562511	895
2	8702	264.173108693282	896
2	8705	264.209364230963	897
2	8714	264.751492482302	898
2	8726	264.932201899415	899
2	8732	265.112911316528	900
2	8735	265.293620733641	901
2	8741	265.655039567867	902
2	8744	265.83574898498	903
2	8750	266.197167819206	904
2	8756	266.377877236319	905
2	8769	266.739296070545	906
2	8772	266.920005487658	907
2	8775	266.992174378156	908
2	8781	267.281424321884	909
2	8787	267.486192652041	910
2	8790	267.64284315611	911
2	8792	267.686008034895	912
2	8811	268.184971407449	913
2	8814	268.365680824562	914
2	8825	268.727099658788	915
2	8828	268.907809075901	916
2	8864	269.992065578579	917
2	8867	270.172774995692	918
2	8873	270.534193829918	919
2	8879	270.714903247031	920
2	8885	270.895612664144	921
2	8894	271.122989811658	922
2	8897	271.25703149837	923
2	8900	271.437740915483	924
2	8903	271.618450332596	925
2	8906	271.799159749709	926
2	8919	272.210473796735	927
2	8923	272.341288001048	928
2	8926	272.521997418161	929
2	8935	272.702706835274	930
2	8941	273.0641256695	931
2	8947	273.425544503726	932
2	8980	274.509801006404	933
2	8983	274.690510423517	934
2	8989	274.87121984063	935
2	9018	275.774766926195	936
2	9021	275.955476343308	937
2	9030	276.497604594647	938
2	9039	276.67831401176	939
2	9042	276.859023428873	940
2	9047	277.039732845986	941
2	9053	277.220442263099	942
2	9055	277.276733497388	943
2	9072	277.943279931551	944
2	9081	278.268437117652	945
2	9084	278.304698765777	946
2	9090	278.396584130892	947
2	9093	278.48540818289	948
2	9096	278.666117600003	949
2	9102	278.846827017116	950
2	9104	278.974382751551	951
2	9108	279.027536434229	952
2	9111	279.208245851342	953
2	9117	279.388955268455	954
2	9148	280.473211771133	955
2	9166	281.087502802526	956
2	9169	281.196049439585	957
2	9172	281.376758856698	958
2	9180	281.738177690924	959
2	9186	281.918887108037	960
2	9189	282.033381290509	961
2	9192	282.09959652515	962
2	9204	282.461015359376	963
2	9207	282.641724776489	964
2	9210	282.822434193602	965
2	9230	283.725981279167	966
2	9241	283.9065684874	967
2	9244	283.90669069628	968
2	9247	284.087400113393	969
2	9253	284.448818947619	970
2	9256	284.629528364732	971
2	9259	284.810237781845	972
2	9265	284.990947198958	973
2	9271	285.171656616071	974
2	9277	285.352366033184	975
2	9288	285.71378486741	976
2	9294	285.894494284523	977
2	9297	286.075203701636	978
2	9300	286.255913118749	979
2	9306	286.436622535862	980
2	9314	286.725634172274	981
2	9320	286.798041370088	982
2	9323	286.978750787201	983
2	9338	287.701588455653	984
2	9341	287.882297872766	985
2	9356	288.243716706992	986
2	9362	288.424426124105	987
2	9368	288.785844958331	988
2	9371	288.966554375444	989
2	9384	289.306975609743	990
2	9396	289.544699857148	991
2	9414	290.412229712348	992
2	9417	290.592939129461	993
2	9419	290.657445924639	994
2	9423	290.773648546574	995
2	9429	290.954357963687	996
2	9439	291.1350673808	997
2	9447	291.315776797913	998
2	9459	292.038614466365	999
2	9468	292.363765542022	1000
2	9471	292.400033300591	1001
2	9492	292.94377276936	1002
2	9495	293.122870969043	1003
2	9504	293.484289803269	1004
2	9507	293.664999220382	1005
2	9516	294.026418054608	1006
2	9525	294.207127471721	1007
2	9528	294.387836888834	1008
2	9543	295.110674557286	1009
2	9546	295.182831226896	1010
2	9549	295.291383974399	1011
2	9564	295.833512225738	1012
2	9567	296.014221642851	1013
2	9584	296.580569928977	1014
2	9587	296.737059311303	1015
2	9590	296.917768728416	1016
2	9598	297.098478145529	1017
2	9604	297.279187562642	1018
2	9607	297.459896979755	1019
2	9624	298.002025231094	1020
2	9647	298.724862899546	1021
2	9653	299.086281733772	1022
2	9656	299.266991150885	1023
2	9662	299.447700567998	1024
2	9668	299.809119402224	1025
2	9670	299.843066420042	1026
2	9691	300.351247653563	1027
2	9694	300.531957070676	1028
2	9700	300.820962596644	1029
2	9705	300.893375904902	1030
2	9708	301.074085322015	1031
2	9732	301.97763240758	1032
2	9744	302.339051241806	1033
2	9747	302.519760658919	1034
2	9750	302.700470076032	1035
2	9756	302.881179493145	1036
2	9759	303.061888910258	1037
2	9765	303.242598327371	1038
2	9779	303.640028281518	1039
2	9785	303.78472657871	1040
2	9787	303.800891994363	1041
2	9791	303.854164248211	1042
2	9794	303.965435995823	1043
2	9806	304.507564247162	1044
2	9818	305.049692498501	1045
2	9824	305.230401915614	1046
2	9830	305.59182074984	1047
2	9850	306.314658418292	1048
2	9856	306.459093966392	1049
2	9859	306.495367835405	1050
2	9868	307.037496086744	1051
2	9871	307.218205503857	1052
2	9877	307.39891492097	1053
2	9880	307.490961407828	1054
2	9901	308.121752589422	1055
2	9910	308.483171423648	1056
2	9913	308.663880840761	1057
2	9922	308.844590257874	1058
2	9929	309.090891713204	1059
2	9933	309.2060090921	1060
2	9938	309.278159651266	1061
2	9950	309.748137343439	1062
2	9953	309.928846760552	1063
2	9956	310.109556177665	1064
2	9965	310.470975011891	1065
2	9968	310.651684429004	1066
2	9972	310.832393846117	1067
2	9984	311.127758567445	1068
2	9987	311.193812680343	1069
2	10007	312.09722533614	1070
2	10010	312.097359765908	1071
2	10013	312.278069183021	1072
2	10019	312.458778600134	1073
2	10031	312.82019743436	1074
2	10034	313.000906851473	1075
2	10048	313.543035102812	1076
2	10054	313.723744519925	1077
2	10057	313.904453937038	1078
2	10063	314.085163354151	1079
2	10066	314.265872771264	1080
2	10083	314.764555727062	1081
2	10086	314.808001022603	1082
2	10089	314.916291021014	1083
2	10095	315.169419856829	1084
2	10098	315.350129273942	1085
2	10102	315.530838691055	1086
2	10107	315.708836138988	1087
2	10113	315.892257525281	1088
2	10124	316.298618282183	1089
2	10128	316.43438577662	1090
2	10139	316.795804610846	1091
2	10159	317.518642279298	1092
2	10162	317.699351696411	1093
2	10165	317.735356705888	1094
2	10168	317.880061113524	1095
2	10174	318.24147994775	1096
2	10180	318.422189364863	1097
2	10209	319.506445867541	1098
2	10218	319.867864701767	1099
2	10221	320.04857411888	1100
2	10239	320.409992953106	1101
2	10242	320.554422390762	1102
2	10245	320.590702370219	1103
2	10251	320.952121204445	1104
2	10257	321.132830621558	1105
2	10263	321.494249455784	1106
2	10266	321.674958872897	1107
2	10278	322.036377707123	1108
2	10290	322.397796541349	1109
2	10293	322.578505958462	1110
2	10317	323.373488075636	1111
2	10319	323.420457862254	1112
2	10323	323.482053044027	1113
2	10326	323.66276246114	1114
2	10335	324.204890712479	1115
2	10341	324.385600129592	1116
2	10374	325.650566049383	1117
2	10383	325.831275466496	1118
2	10389	326.011984883609	1119
2	10394	326.19255376051	1120
2	10397	326.192694300722	1121
2	10406	326.373403717835	1122
2	10418	326.915531969174	1123
2	10421	327.096241386287	1124
2	10424	327.2769508034	1125
2	10435	327.736879516839	1126
2	10439	327.819079054739	1127
2	10448	327.999788471852	1128
2	10454	328.361207306078	1129
2	10468	329.011619445384	1130
2	10471	329.08404497453	1131
2	10491	329.626173225869	1132
2	10494	329.806882642982	1133
2	10500	330.168301477208	1134
2	10512	330.710429728547	1135
2	10518	330.89113914566	1136
2	10539	331.613976814112	1137
2	10545	331.794686231225	1138
2	10548	331.830685130258	1139
2	10557	332.156105065451	1140
2	10563	332.336814482564	1141
2	10569	332.517523899677	1142
2	10581	333.059652151016	1143
2	10584	333.240361568129	1144
2	10587	333.421070985242	1145
2	10593	333.601780402355	1146
2	10599	333.782489819468	1147
2	10602	333.963199236581	1148
2	10616	334.50532748792	1149
2	10619	334.649750815132	1150
2	10622	334.686036905033	1151
2	10631	335.047455739259	1152
2	10637	335.408874573485	1153
2	10642	335.589583990598	1154
2	10648	335.770293407711	1155
2	10651	335.951002824824	1156
2	10654	336.131712241937	1157
2	10657	336.31242165905	1158
2	10674	336.673840493276	1159
2	10677	336.854549910389	1160
2	10691	337.215968744615	1161
2	10697	337.396678161728	1162
2	10700	337.468816500006	1163
2	10703	337.577387578841	1164
2	10726	338.480934664406	1165
2	10729	338.661644081519	1166
2	10734	338.768097723948	1167
2	10737	338.842353498632	1168
2	10742	339.175140751495	1169
2	10752	339.384481749971	1170
2	10761	339.745900584197	1171
2	10775	340.222135844381	1172
2	10778	340.28788218488	1173
2	10784	340.468738252649	1174
2	10787	340.649447669762	1175
2	10796	341.010866503988	1176
2	10799	341.191575921101	1177
2	10810	341.73370417244	1178
2	10816	341.914413589553	1179
2	10827	342.275832423779	1180
2	10844	342.998670092231	1181
2	10850	343.106947869754	1182
2	10859	343.360088926457	1183
2	10862	343.54079834357	1184
2	10871	343.858933003998	1185
2	10877	344.082926594909	1186
2	10889	344.805764263361	1187
2	10901	345.167183097587	1188
2	10910	345.528601931813	1189
2	10921	345.926013554628	1190
2	10942	346.612858434491	1191
2	10948	346.793567851604	1192
2	10954	347.15498668583	1193
2	10957	347.335696102943	1194
2	10963	347.516405520056	1195
2	11001	348.600662022734	1196
2	11004	348.745079239502	1197
2	11012	349.072761790079	1198
2	11016	349.142790274073	1199
2	11027	349.504209108299	1200
2	11036	349.865627942525	1201
2	11039	350.046337359638	1202
2	11045	350.407756193864	1203
2	11050	350.588465610977	1204
2	11053	350.76917502809	1205
2	11068	351.130593862316	1206
2	11085	351.564144924376	1207
2	11094	352.034140947881	1208
2	11097	352.214850364994	1209
2	11100	352.395559782107	1210
2	11112	352.756978616333	1211
2	11118	353.118397450559	1212
2	11136	353.841235119011	1213
2	11153	354.202653953237	1214
2	11158	354.38321060925	1215
2	11161	354.38336337035	1216
2	11164	354.564072787463	1217
2	11173	354.925491621689	1218
2	11179	355.286910455915	1219
2	11185	355.467619873028	1220
2	11209	356.371166958593	1221
2	11212	356.551876375706	1222
2	11224	356.913295209932	1223
2	11238	357.274714044158	1224
2	11247	357.816842295497	1225
[...]
11	2032	44.525108845027	0
11	2033	44.632523111394	1
11	2055	45.189550690007	0
11	2056	45.247946513479	1
11	2072	45.667761171177	0
11	2090	45.970784181931	1
11	2098	46.209889422516	0
11	2110	46.585179090872	1
11	2114	46.635226026911	0
11	2127	47.0876462499	1
11	2148	47.416459518835	0
11	2150	47.49213602823	1
11	2159	47.538773112476	0
11	2169	47.777878353061	1
11	2173	47.827773565861	0
11	2196	48.497516663212	1
11	2199	48.623029615154	0
11	2201	48.681425438626	1
11	2218	49.131337541208	0
11	2222	49.189551247277	1
11	2234	49.526576700719	0
11	2236	49.643368347663	1
11	2261	50.068704952058	0
11	2270	50.307810192643	1
11	2291	50.786020673813	0
11	2312	51.328148925152	1
11	2328	51.695089706075	0
11	2329	51.699498566892	1
11	2332	51.753485529547	0
11	2357	52.534719021471	1
11	2361	52.657032615112	0
11	2379	52.946033068497	1
11	2382	52.960055625866	0
11	2393	53.236782672556	1
11	2407	53.502183877205	0
11	2411	53.74128911779	1
11	2434	54.249597043844	0
11	2439	54.283417369129	1
11	2451	54.644836203355	0
11	2472	55.186964454694	1
11	2479	55.367673871807	0
11	2500	55.904280176449	1
11	2501	55.909802123146	0
11	2519	56.271220957372	1
11	2520	56.311350883884	0
11	2527	56.414229467416	1
11	2539	56.813349208711	0
11	2543	56.871745032183	1
11	2570	57.536186877163	0
11	2576	57.775292117748	1
11	2579	57.839209887917	0
11	2587	58.078315128502	1
11	2592	58.200628722143	0
11	2609	58.620443379841	1
11	2617	58.742756973482	0
11	2644	59.36785654648	1
11	2653	59.763095705991	0
11	2682	60.485933374443	1
11	2688	60.549851144612	0
11	2704	61.028061625782	1
11	2717	61.272688813064	0
11	2723	61.42961038652	1
11	2728	61.453398230177	0
11	2747	61.931608711347	1
11	2774	62.537654732855	0
11	2775	62.654446379799	1
11	2788	62.957469390553	0
11	2801	63.318888224779	1
11	2826	63.861016476118	0
11	2863	64.881355208627	1
11	2885	65.429005406663	0
11	2892	65.668110647248	1
11	2918	66.3909483157	0
11	2927	66.571657732813	1
11	2933	66.693971326454	0
11	2967	67.655914235491	1
11	2984	68.075728893189	0
11	3014	68.979275978754	1
11	3045	69.657576436976	0
11	3070	70.547264909299	1
11	3081	70.66957850294	0
11	3112	71.509207818336	1
11	3124	71.81223082909	0
11	3175	73.193988395825	1
11	3178	73.199510342522	0
11	3226	74.775835939612	1
11	3234	75.006604513652	0
11	3263	75.787838005576	1
11	3270	75.840111671088	0
11	3309	76.930490331726	1
11	3328	77.355826936121	0
11	3360	78.317769845158	1
11	3394	79.162921107251	0
11	3427	80.124864016288	1
11	3462	80.958371173724	0
11	3515	82.474086438757	1
11	3518	82.585732180142	0
11	3572	84.281180609887	1
11	3599	85.12633187198	0
11	3627	86.07663067636	1
11	3645	86.57197054622	0
11	3679	87.703991682778	1
11	3723	88.921229631353	0
11	3772	90.244591374616	1
11	3781	90.54761438537	0
11	3822	91.690230048856	1
11	3834	92.173999139387	0
11	3891	94.039489133989	1
11	3938	95.607478064534	0
11	3939	95.665873888006	1
11	3947	95.788187481647	0
11	3991	97.292258642023	1
11	4003	97.414572235664	0
11	4107	100.72573756717	1
11	4115	100.906446984283	0
11	4154	102.5328317383	1
11	4186	103.486364655464	0
11	4261	106.024706486919	1
11	4272	106.305430340338	0
11	4338	108.6046241581	1
11	4352	108.979974930896	0
11	4423	111.423689842974	1
11	4504	114.098234433532	0
11	4649	119.216493936168	1
11	4655	119.280411706337	0
11	4801	124.398671208973	1
11	4828	125.085607036652	0
11	4969	130.203866539288	1
11	4973	130.30368615023	0
11	5121	135.421945652866	1
11	5129	135.72496866362	0
11	5282	140.843228166256	1
11	5359	143.676183016592	0
11	5502	148.794442519228	1
11	5586	151.702037303302	0
11	5728	156.820296805938	1
11	5732	156.867970465841	0
11	5871	161.986229968477	1
11	5896	162.650671813457	0
11	6022	167.768931316093	1
11	6038	168.071954326847	0
11	6185	173.190213829483	1
11	6199	173.67394625735	0
11	6339	178.792205759986	1
11	6350	179.275938187853	0
11	6495	184.394197690489	1
11	6544	185.781477203921	0
11	6684	190.899736706557	1
11	6704	191.564178551537	0
11	6851	196.682438054173	1
11	6865	197.16617048204	0
11	7010	202.284429984676	1
11	7017	202.517807371046	0
11	7150	207.636066873682	1
11	7154	207.647316674594	0
11	7297	212.76557617723	1
11	7346	214.333565107775	0
11	7480	219.451824610411	1
11	7566	222.46548887786	0
11	7701	227.583748380496	1
11	7858	233.488763321753	0
11	7998	238.607022824389	1
11	8065	241.078558840499	0
11	8205	246.196818343135	1
11	8210	246.319131936776	0
11	8347	251.437391439412	1
11	8372	252.463252118618	0
11	8522	257.581511621254	1
11	8533	258.065244049121	0
11	8668	263.183503551757	1
11	8708	264.390073648076	0
11	8846	269.508333150712	1
11	8858	269.81124006303	0
11	8990	274.929499565666	1
11	9003	275.232638674856	0
11	9143	280.350898177492	1
11	9151	280.653921188246	0
11	9289	285.772180690882	1
11	9329	287.340169621427	0
11	9472	292.458429124063	1
11	9486	292.761452134817	0
11	9616	297.879711637453	1
11	9621	298.00189691177	0
11	9760	303.120156414406	1
11	9776	303.604017161597	0
11	9917	308.722276664233	1
11	9941	309.386718509213	0
11	10072	314.504978011849	1
11	10092	314.988710439716	0
11	10225	320.106969942352	1
11	10260	321.313540038671	0
11	10407	326.431799541307	1
11	10412	326.554113134948	0
11	10540	331.672372637584	1
11	10572	332.69823331679	0
11	10707	337.816492819426	1
11	10715	337.938806413067	0
11	10845	343.057065915703	1
11	10853	343.179379509344	0
11	10993	348.29763901198	1
11	11007	348.781371439847	0
11	11139	353.899630942483	1
11	11155	354.36276150892	0
11	11293	359.481021011556	1
11	11298	359.623936466627	0
11	11434	364.742195969263	1
11	11444	364.939149496642	0
11	11583	370.057408999278	1
11	11629	371.731467413198	0
11	11766	376.849726915834	1
11	11809	378.598425263492	0
11	11945	383.716684766128	1
11	11977	384.742545445334	0
11	12118	389.86080494797	1
11	12155	391.067375044289	0
11	12281	396.185634546925	1
11	12306	396.713865511364	0
11	12433	401.832125014	1
11	12462	402.452068322408	0
11	12587	407.570327825044	1
11	12613	408.234769670024	0
11	12744	413.35302917266	1
11	12749	413.475342766301	0
11	12887	418.593602268937	1
11	12901	419.077334696804	0
11	13038	424.19559419944	1
11	13119	427.209258466889	0
11	13257	432.327517969525	1
11	13288	433.353378648731	0
11	13424	438.471638151367	1
11	13477	440.220336499025	0
11	13611	445.338596001661	1
11	13640	446.364456680867	0
11	13770	451.482716183503	1
11	13796	452.508576862709	0
11	13939	457.626836365345	1
11	13953	458.110568793212	0
11	14091	463.228828295848	1
11	14102	463.531851306602	0
11	14237	468.650110809238	1
11	14248	468.953133819992	0
11	14390	474.071393322628	1
11	14479	477.677081054216	0
11	14622	482.795340556852	1
11	14655	483.952015440371	0
11	14783	489.070274943007	1
11	14797	489.373297953761	0
11	14932	494.491557456397	1
11	14937	494.613871050038	0
11	15070	499.732130552674	1
11	15075	499.854444146315	0
11	15215	504.972703648951	1
11	15234	505.531076010556	0
11	15366	510.649335513192	1
11	15391	511.239137424434	0
11	15521	516.35739692707	1
11	15535	516.841129354937	0
11	15674	521.959388857573	1
11	15691	522.44312128544	0
11	15824	527.561380788076	1
11	15838	527.86440379883	0
11	15973	532.982663301466	1
11	15978	533.104976895107	0
11	16115	538.223236397743	1
11	16132	538.70696882561	0
11	16266	543.825228328246	1
11	16295	545.031798424565	0
11	16431	550.150057927201	1
11	16474	551.71780855043	0
11	16601	556.836068053066	1
11	16623	557.355939920178	0
11	16751	562.474199422814	1
11	16762	562.741321301639	0
11	16898	567.859580804275	1
11	16926	568.632202659674	0
11	17052	573.75046216231	1
11	17075	574.306723996871	0
11	17201	579.424983499507	1
11	17206	579.547297093148	0
11	17341	584.665556595784	1
11	17352	584.968579606538	0
11	17480	590.086839109174	1
11	17488	590.389862119928	0
11	17628	595.508121622564	1
11	17708	598.521785890013	0
11	17836	603.640045392649	1
11	17891	605.56945315742	0
11	18020	610.687712660056	1
11	18031	610.918187932784	0
11	18157	616.03644743542	1
11	18168	616.231308767087	0
11	18304	621.349568269723	1
11	18309	621.471881863364	0
11	18440	626.590141366	1
11	18457	627.25458321098	0
11	18597	632.372842713616	1
11	18628	633.470713411776	0
11	18760	638.588972914412	1
11	18788	639.542823574664	0
11	18920	644.6610830773	1
11	18937	645.32552492228	0
11	19071	650.443784424916	1
11	19090	650.927516852783	0
11	19216	656.045776355419	1
11	19221	656.16808994906	0
11	19353	661.286349451696	1
11	19358	661.408663045337	0
11	19496	666.526922547973	1
11	19501	666.649236141614	0
11	19631	671.76749564425	1
11	19654	672.612646906343	0
11	19789	677.730906408979	1
11	19794	677.85322000262	0
11	19928	682.971479505256	1
11	19942	683.455211933123	0
11	20075	688.573471435759	1
11	20086	689.057203863626	0
11	20221	694.175463366262	1
11	20235	694.659195794129	0
11	20365	699.777455296765	1
11	20402	700.984025393084	0
11	20537	706.10228489572	1
11	20542	706.224598489361	0
11	20674	711.342857991997	1
11	20688	711.826590419864	0
11	20823	716.9448499225	1
11	20845	717.790001184593	0
11	20976	722.908260687229	1
11	20990	723.391993115096	0
11	21121	728.510252617732	1
11	21126	728.632566211373	0
11	21263	733.750825714009	1
11	21283	734.595976976102	0
11	21413	739.714236478738	1
11	21427	740.017259489492	0
11	21555	745.135518992128	1
11	21591	746.161379671334	0
11	21720	751.27963917397	1
11	21739	751.763371601837	0
11	21862	756.881631104473	1
11	21894	757.726782366566	0
11	22022	762.845041869202	1
11	22038	763.14773491598	0
11	22161	768.265994418616	1
11	22180	768.750056810459	0
11	22314	773.868316313095	1
11	22354	775.255595826527	0
11	22485	780.373855329163	1
11	22496	780.676878339917	0
11	22620	785.795137842553	1
11	22672	787.724545607324	0
11	22801	792.84280510996	1
11	22839	794.157457449594	0
11	22964	799.27571695223	1
11	22987	799.832076553895	0
11	23109	804.950336056531	1
11	23141	805.976196735737	0
11	23275	811.094456238373	1
11	23280	811.216769832014	0
11	23403	816.33502933465	1
11	23444	817.722308848082	0
11	23577	822.840568350718	1
11	23585	822.962881944359	0
11	23713	828.081141446995	1
11	23736	828.926292709088	0
11	23865	834.044552211724	1
11	23873	834.166865805365	0
11	24002	839.285125308001	1
11	24010	839.588148318755	0
11	24142	844.706407821391	1
11	24195	846.455106169049	0
11	24321	851.573365671685	1
11	24388	854.044901687795	0
11	24516	859.163161190431	1
11	24566	860.911859538089	0
11	24699	866.030119040725	1
11	24710	866.513851468592	0
11	24838	871.632110971228	1
11	24846	871.935133981982	0
11	24980	877.053393484618	1
11	24994	877.717835329598	0
11	25129	882.836094832234	1
11	25146	883.500536677214	0
11	25278	888.61879617985	1
11	25283	888.741109773491	0
11	25417	893.859369276127	1
11	25452	895.246648789559	0
11	25584	900.364908292195	1
11	25598	901.029350137175	0
11	25734	906.147609639811	1
11	25787	908.257726821695	0
11	25915	913.375986324331	1
11	25920	913.498299917972	0
11	26051	918.616559420608	1
11	26092	920.184548351153	0
11	26221	925.302807853789	1
11	26229	925.605830864543	0
11	26362	930.724090367179	1
11	26376	931.207822795046	0
11	26504	936.326082297682	1
11	26509	936.448395891323	0
11	26644	941.566655393959	1
11	26672	942.773225490278	0
11	26804	947.891484992914	1
11	26848	949.640183340572	0
11	26981	954.758442843208	1
11	27024	956.326431773753	0
11	27152	961.444691276389	1
11	27160	961.56700487003	0
11	27290	966.685264372666	1
11	27295	966.807577966307	0
11	27422	971.925837468943	1
11	27432	972.104726785948	0
11	27564	977.222986288584	1
11	27569	977.288724158861	0
11	27696	982.406983661497	1
11	27767	985.05922909472	0
11	27895	990.177488597356	1
11	27900	990.299802190997	0
11	28034	995.418061693633	1
11	28059	996.443922372839	0
11	28195	1001.562181875475	1
11	28203	1001.865204886229	0
11	28332	1006.983464388865	1
11	28358	1008.190034485184	0
11	28494	1013.30829398782	1
11	28499	1013.430607581461	0
11	28633	1018.548867084097	1
11	28644	1019.032599511964	0
11	28774	1024.1508590146	1
11	28826	1025.899557362258	0
11	28947	1031.017816864894	1
11	28978	1031.862968126987	0
11	29106	1036.981227629623	1
11	29117	1037.284250640377	0
11	29246	1042.402510143013	1
11	29253	1042.544605145522	0
11	29383	1047.662864648158	1
11	29395	1048.04463741102	0
11	29518	1053.162896913656	1
11	29540	1053.511500458002	0
11	29665	1058.629759960638	1
11	29673	1058.969380693937	0
11	29810	1064.087640196573	1
11	29845	1065.474919710005	0
11	29976	1070.593179212641	1
11	29984	1070.896202223395	0
11	30115	1076.014461726031	1
11	30129	1076.498194153898	0
11	30255	1081.616453656534	1
11	30266	1081.919476667288	0
11	30400	1087.037736169924	1
11	30456	1089.147853351808	0
11	30586	1094.266112854444	1
11	30615	1095.29197353365	0
11	30746	1100.410233036286	1
11	30757	1100.893965464153	0
11	30890	1106.012224966789	1
11	30928	1107.399504480221	0
11	31055	1112.517763982857	1
11	31063	1112.711879840356	0
11	31194	1117.830139342992	1
11	31199	1117.880650672775	0
11	31331	1122.998910175411	1
11	31336	1123.121223769052	0
11	31461	1128.239483271688	1
11	31483	1128.903925116668	0
11	31614	1134.022184619304	1
11	31619	1134.144498212945	0
11	31744	1139.262757715581	1
11	31885	1144.264225571273	0
11	32008	1149.382485073909	1
11	32028	1150.046926918889	0
11	32161	1155.165186421525	1
11	32169	1155.287500015166	0
11	32295	1160.405759517802	1
11	32323	1161.431620197008	0
11	32457	1166.549879699644	1
11	32495	1168.298578047302	0
11	32634	1173.416837549938	1
11	32645	1173.900569977805	0
11	32775	1179.018829480441	1
11	32804	1180.044690159647	0
11	32937	1185.162949662283	1
11	32942	1185.285263255924	0
11	33068	1190.40352275856	1
11	33079	1190.706545769314	0
11	33212	1195.82480527195	1
11	33223	1196.308537699817	0
11	33351	1201.426797202453	1
11	33391	1202.814076715885	0
11	33516	1207.932336218521	1
11	33533	1208.560113126072	0
11	33668	1213.678372628708	1
11	33682	1214.19824449582	0
11	33808	1219.316503998456	1
11	33848	1220.523599592959	0
11	33973	1225.641859095595	1
11	33981	1225.764172689236	0
11	34106	1230.882432191872	1
11	34111	1231.004745785513	0
11	34246	1236.123005288149	1
11	34322	1238.955960138485	0
11	34449	1244.074219641121	1
11	34457	1244.196533234762	0
11	34591	1249.314792737398	1
11	34678	1252.870585256186	0
11	34812	1257.988844758822	1
11	34817	1258.111158352463	0
11	34948	1263.229417855099	1
11	34971	1264.074569117192	0
11	35099	1269.192828619828	1
11	35107	1269.495851630582	0
11	35240	1274.614111133218	1
11	35257	1275.097843561085	0
11	35385	1280.216103063721	1
11	35405	1280.880544908701	0
11	35543	1285.998804411337	1
11	35563	1287.024665090543	0
11	35696	1292.142924593179	1
11	35707	1292.626657021046	0
11	35841	1297.744916523682	1
11	35872	1298.770777202888	0
11	35998	1303.889036705524	1
11	36012	1304.192059716278	0
11	36145	1309.310319218914	1
11	36153	1309.613342229668	0
11	36276	1314.731601732304	1
11	36299	1315.396043577284	0
11	36428	1320.51430307992	1
11	36433	1320.636616673561	0
11	36563	1325.754876176197	1
11	36571	1325.877189769838	0
11	36700	1330.995449272474	1
11	36734	1332.202019368793	0
11	36863	1337.320278871429	1
11	36883	1337.984720716409	0
11	37011	1343.102980219045	1
11	37022	1343.406003229799	0
11	37153	1348.524262732435	1
11	37163	1348.763755145196	0
11	37287	1353.882014647832	1
11	37339	1355.694243593483	0
11	37471	1360.812503096119	1
11	37567	1364.54900503202	0
11	37693	1369.667264534656	1
11	37738	1371.415962882314	0
11	37870	1376.53422238495	1
11	37899	1377.560083064156	0
11	38028	1382.678342566792	1
11	38050	1383.342784411772	0
11	38178	1388.461043914408	1
11	38198	1388.980316958008	0
11	38321	1394.098576460644	1
11	38332	1394.366058855665	0
11	38466	1399.484318358301	1
11	38486	1400.148760203281	0
11	38611	1405.267019705917	1
11	38637	1405.894711067252	0
11	38762	1411.012970569888	1
11	38773	1411.352744064287	0
11	38902	1416.471003566923	1
11	38938	1417.641926927538	0
11	39065	1422.760186430174	1
11	39072	1422.918146759519	0
11	39203	1428.036406262155	1
11	39211	1428.339429272909	0
11	39343	1433.457688775545	1
11	39389	1435.04610501956	0
11	39511	1440.164364522196	1
11	39531	1440.808379053706	0
11	39665	1445.926638556342	1
11	39682	1446.410370984209	0
11	39803	1451.528630486845	1
11	39840	1452.915910000277	0
11	39979	1458.034169502913	1
11	39987	1458.337192513667	0
11	40113	1463.455452016303	1
11	40118	1463.577765609944	0
11	40254	1468.69602511258	1
11	40265	1468.999048123334	0
11	40389	1474.11730762597	1
11	40394	1474.239621219611	0
11	40528	1479.357880722247	1
11	40551	1480.20303198434	0
11	40679	1485.321291486976	1
11	40696	1485.805023914843	0
11	40825	1490.923283417479	1
11	40830	1491.04559701112	0
11	40958	1496.163856513756	1
11	40981	1497.009007775849	0
11	41115	1502.127267278485	1
11	41135	1502.791709123465	0
11	41266	1507.909968626101	1
11	41273	1508.06524985136	0
11	41402	1513.183509353996	1
11	41422	1513.995692984471	0
11	41553	1519.113952487107	1
11	41558	1519.236266080748	0
11	41693	1524.354525583384	1
11	41698	1524.476839177025	0
11	41826	1529.595098679661	1
11	41852	1530.620959358867	0
11	41982	1535.739218861503	1
11	41990	1536.042241872257	0
11	42124	1541.160501374893	1
11	42141	1541.64423380276	0
11	42267	1546.762493305396	1
11	42283	1547.073404775852	0
11	42409	1552.191664278488	1
11	42439	1553.337119647076	0
11	42569	1558.455379149712	1
11	42577	1558.630919011382	0
11	42705	1563.749178514018	1
11	42710	1563.762389420196	0
11	42835	1568.880648922832	1
11	42879	1570.196321706614	0
11	43008	1575.31458120925	1
11	43019	1575.798313637117	0
11	43154	1580.916573139753	1
11	43195	1582.845980904524	0
11	43329	1587.96424040716	1
11	43352	1588.809391669253	0
11	43483	1593.927651171889	1
11	43496	1594.429599078898	0
11	43631	1599.547858581534	1
11	43650	1600.374794364485	0
11	43781	1605.493053867121	1
11	43813	1606.518914546327	0
11	43942	1611.637174048963	1
11	43965	1612.301615893943	0
11	44094	1617.419875396579	1
11	44111	1617.903607824446	0
11	44235	1623.021867327082	1
11	44260	1623.686309172062	0
11	44390	1628.804568674698	1
11	44430	1630.19184818813	0
11	44565	1635.310107690766	1
11	44594	1636.335968369972	0
11	44716	1641.454227872608	1
11	44738	1642.118669717588	0
11	44870	1647.236929220224	1
11	44893	1648.26278989943	0
11	45030	1653.381049402066	1
11	45047	1653.972491336164	0
11	45173	1659.0907508388	1
11	45199	1659.828192594662	0
11	45326	1664.946452097298	1
11	45337	1665.249475108052	0
11	45463	1670.367734610688	1
11	45500	1671.574304707007	0
11	45628	1676.692564209643	1
11	45645	1677.357006054623	0
11	45780	1682.475265557259	1
11	45811	1683.501126236465	0
11	45934	1688.619385739101	1
11	45957	1689.464537001194	0
11	46090	1694.58279650383	1
11	46104	1694.885819514584	0
11	46228	1700.00407901722	1
11	46236	1700.307102027974	0
11	46374	1705.42536153061	1
11	46379	1705.547675124251	0
11	46507	1710.665934626887	1
11	46558	1712.5188553804	0
11	46682	1717.637114883036	1
11	46702	1718.197334322161	0
11	46828	1723.315593824797	1
11	46839	1723.618616835551	0
11	46968	1728.736876338187	1
11	46991	1729.58202760028	0
11	47124	1734.700287102916	1
11	47144	1735.364728947896	0
11	47272	1740.482988450532	1
11	47295	1741.147430295512	0
11	47420	1746.265689798148	1
11	47434	1746.749422226015	0
11	47569	1751.867681728651	1
11	47583	1752.351414156518	0
11	47708	1757.469673659154	1
11	47721	1757.772696669908	0
11	47853	1762.890956172544	1
11	47867	1763.374688600411	0
11	47996	1768.492948103047	1
11	48037	1769.880227616479	0
11	48164	1774.998487119115	1
11	48225	1777.470023135225	0
11	48356	1782.588282637861	1
11	48408	1784.156271568406	0
11	48529	1789.274531071042	1
11	48537	1789.396844664683	0
11	48665	1794.515104167319	1
11	48687	1794.998836595186	0
