version 2
run conf3-3-20161125-01:35:27-2072
attr configname conf3
attr datetime 20161125-01:35:27
attr experiment conf3
attr i 3
attr inifile omnetpp.ini
attr iterationvars "$i=3, $p=7, $q=6"
attr iterationvars2 "$i=3, $p=7, $q=6, $repetition=0"
attr measurement "$i=3, $p=7, $q=6"
attr network Omrezje
attr p 7
attr processid 2072
attr q 6
attr repetition 0
attr replication #0
attr resultdir results
attr runnumber 3
attr seedset 3
param Omrezje.router*.processingTime "truncnormal(${p = 5..7 step 2}, ${p} * 0.5)"
param Omrezje.router*.queueCapacity "truncnormal(${q = 1..6 step 5}, 0)"
param Omrezje.source*.interArrivalTime "truncnormal(${i = 3..5 step 2}, ${i} * 0.5)"

vector 0  Omrezje.router  droppedPackage:vector  ETV
attr interpolationmode  none
attr title  "drop package, vector"
vector 1  Omrezje.router  queueLength:vector  ETV
attr interpolationmode  none
attr title  "queue length, vector"
vector 2  Omrezje.router1  droppedPackage:vector  ETV
attr interpolationmode  none
attr title  "drop package, vector"
vector 3  Omrezje.router1  queueLength:vector  ETV
attr interpolationmode  none
attr title  "queue length, vector"
vector 4  Omrezje.router2  droppedPackage:vector  ETV
attr interpolationmode  none
attr title  "drop package, vector"
vector 5  Omrezje.router2  queueLength:vector  ETV
attr interpolationmode  none
attr title  "queue length, vector"
vector 6  Omrezje.router3  droppedPackage:vector  ETV
attr interpolationmode  none
attr title  "drop package, vector"
vector 7  Omrezje.router3  queueLength:vector  ETV
attr interpolationmode  none
attr title  "queue length, vector"
vector 8  Omrezje.router4  droppedPackage:vector  ETV
attr interpolationmode  none
attr title  "drop package, vector"
vector 9  Omrezje.router4  queueLength:vector  ETV
attr interpolationmode  none
attr title  "queue length, vector"
vector 10  Omrezje.router5  droppedPackage:vector  ETV
attr interpolationmode  none
attr title  "drop package, vector"
vector 11  Omrezje.router5  queueLength:vector  ETV
attr interpolationmode  none
attr title  "queue length, vector"
0	0	0	0
0	203	6.669821234328	1
0	223	7.419435238733	2
0	233	8.237759806452	3
0	243	8.918663247543	4
0	281	11.098767073019	5
0	317	11.917119265163	6
0	592	20.110341723216	7
0	2242	61.813452885475	8
0	3741	109.539077045711	9
0	3774	110.662050339296	10
0	3792	111.27445833887	11
0	3818	112.196609041638	12
0	3829	112.925843054698	13
0	4047	120.451777879701	14
0	4189	126.263979876949	15
0	4200	126.50859934711	16
0	4202	126.608061939128	17
0	4257	128.990189169939	18
0	4305	130.588268834157	19
0	4319	131.166592032262	20
0	4370	133.41444847433	21
0	4382	134.024154210368	22
0	4409	135.025953195481	23
0	4430	135.603429991988	24
0	5589	182.079498265098	25
0	5596	182.813029084559	26
0	5611	183.10341723216	27
0	5664	185.741717165282	28
0	6226	209.561460579854	29
0	6229	209.582179788059	30
0	6246	210.268929816984	31
0	6331	214.274854292853	32
0	6416	217.529000662318	33
0	6452	219.324100678592	34
0	6665	228.3792715402	35
0	6670	228.41503543185	36
0	6696	230.054794547018	37
0	6900	238.440775204372	38
0	6908	238.731418551504	39
0	6913	238.903555759402	40
0	6917	239.0756929673	41
0	7339	257.040898705598	42
0	7343	257.263105033613	43
0	7636	269.206859983976	44
0	7689	271.432221675061	45
0	7857	278.202228036836	46
0	8395	302.015342198444	47
0	8408	302.767352974303	48
0	8461	305.348223863868	49
0	8570	309.875809294672	50
0	8599	311.518889734152	51
0	8604	311.762721027163	52
0	8612	312.139602010074	53
0	8631	312.890851153426	54
0	8649	313.42825947373	55
0	8692	315.510791049188	56
0	8870	323.458565587084	57
0	9085	332.751913150503	58
0	9304	341.68621603055	59
0	9307	341.749446569739	60
0	9518	350.920978984544	61
0	9536	351.479683593518	62
0	9561	352.88787088731	63
0	9572	353.335765685234	64
0	9618	355.298894846847	65
0	9628	355.6361273492	66
0	10071	375.52579804133	67
0	10291	386.464196966861	68
0	10297	386.724121467663	69
0	10427	391.971419498498	70
0	10429	392.359059896016	71
0	10464	393.383815386815	72
0	10480	393.728089802611	73
0	10500	394.969875516118	74
0	10575	398.16372519535	75
0	10638	400.966787551358	76
0	10666	402.466015560168	77
0	10668	402.638152768066	78
0	10789	407.868270941608	79
0	10815	408.5568197732	80
0	10882	411.633520820926	81
0	10885	411.746481487762	82
0	10902	412.217907725072	83
0	10906	412.383134825331	84
0	10922	413.27083443807	85
0	10932	413.710225626243	86
0	10937	414.010274203164	87
0	11000	416.933056089728	88
0	11002	416.95078395181	89
0	11490	437.697873767203	90
0	11523	439.197101776013	91
0	11534	440.03998514157	92
0	11543	440.508797913008	93
0	11577	441.710858572184	94
0	11593	442.195557793633	95
0	11608	442.945171798038	96
0	11790	450.441311842088	97
0	11928	456.640300094305	98
0	12368	475.928187991858	99
0	12391	477.39647023442	100
0	12393	477.427416000668	101
0	12561	484.341004672195	102
0	12572	484.923556044718	103
0	12612	486.451641096028	104
0	12805	495.667731261383	105
0	12826	496.520378990049	106
0	12872	498.416608124008	107
0	13061	506.677401706689	108
0	13174	511.561373009901	109
0	13182	511.909660203298	110
0	13204	513.408888212108	111
0	13210	513.617153680852	112
0	13262	515.932051924789	113
0	13274	516.104189132687	114
0	13288	516.579505803437	115
0	13291	516.620600756381	116
0	13392	520.715671398779	117
0	13398	520.887808606677	118
0	13412	521.654642260563	119
0	13433	523.153870269373	120
0	13613	530.650010313423	121
0	13729	535.897308344258	122
0	13733	536.069445552156	123
0	13751	536.695823407635	124
0	13808	539.526913570784	125
0	13878	543.046458981078	126
0	13889	543.393448388308	127
0	13909	544.24206193544	128
0	14012	548.925807915782	129
0	14243	559.242298255455	130
0	14259	559.781396603114	131
0	14299	561.413660183106	132
0	14657	577.248100488032	133
0	14853	586.058520573716	134
0	14863	586.678397217344	135
0	14908	588.456590664164	136
0	15197	601.028360571854	137
0	15241	603.510128278694	138
0	15259	604.168862296932	139
0	15718	625.101374868453	140
0	15855	630.763686123786	141
0	15884	632.421718651701	142
0	16051	638.710506998045	143
0	16080	640.389545743364	144
0	16085	640.762464943149	145
0	16100	641.592882965363	146
0	16250	647.934069416399	147
0	16256	647.975325957872	148
0	16644	665.291265612786	149
0	16675	666.835919416496	150
0	17059	683.401607336002	151
0	17077	684.320881216448	152
0	17097	685.350061372528	153
0	17122	686.391432243599	154
0	17176	688.443390188703	155
0	17244	691.178479291178	156
0	17248	691.409565037135	157
0	17315	694.782283153932	158
0	17326	695.126809604432	159
0	17337	695.565091282523	160
0	17339	695.737228490421	161
0	17354	696.491827855678	162
0	17753	713.555827388243	163
0	17799	715.804669401458	164
0	17923	721.051967432293	165
0	17967	723.417699792368	166
0	18002	724.800037454318	167
0	18086	728.177494559998	168
0	18164	732.296177498368	169
0	18181	732.84799652168	170
0	18765	757.91282011193	171
0	18769	758.106766944268	172
0	18885	763.407773326425	173
0	18918	765.017642868783	174
0	18948	765.859640986189	175
0	18958	766.440584625702	176
0	18991	768.572038616908	177
0	19158	775.773789753858	178
0	19162	775.858419805552	179
0	19168	776.217108667484	180
0	19264	779.99948016824	181
0	19269	780.103839405783	182
0	19271	780.275976613681	183
0	19307	781.753282734707	184
0	19310	781.776778329985	185
0	19366	784.637452421364	186
0	19404	786.268385815528	187
0	19406	786.771415528243	188
0	19595	794.514139863983	189
0	19617	795.263753868388	190
0	19779	802.759893912438	191
0	19781	802.932031120336	192
0	19792	803.382621252308	193
0	19801	803.57522199152	194
0	19803	803.621205625626	195
0	19821	805.008735925653	196
0	19838	805.652293436881	197
0	19875	807.645703302588	198
0	19953	810.256033956488	199
0	19955	810.61187815102	200
0	20028	814.004103978513	201
0	20030	814.176241186411	202
0	20068	815.592524176847	203
0	20097	817.002559996133	204
0	20133	817.933523972521	205
0	20239	823.539345051106	206
0	20263	824.093360451574	207
0	20403	830.129621910519	208
0	20414	830.548133837132	209
0	20443	831.994840084233	210
0	20458	832.630795349121	211
0	20469	832.811926552534	212
0	20661	841.296408908768	213
0	20812	847.908871384636	214
0	20820	848.326489706181	215
0	20883	850.92226827575	216
0	21083	859.977439137358	217
0	21103	860.457734903289	218
0	21248	867.226698291268	219
0	21282	869.032609998966	220
0	21284	869.168312351556	221
0	21304	869.587299096704	222
0	21515	879.167091170919	223
0	21630	884.467820392583	224
0	21650	885.061954100074	225
0	21653	885.217434396988	226
0	21688	887.113912045178	227
0	22050	903.007553793696	228
0	22081	905.253293445398	229
0	22239	912.023634378608	230
0	22255	912.565483682837	231
0	22344	916.642538515144	232
0	22473	921.948520612833	233
0	22559	926.169079472576	234
0	22561	926.1694421636	235
0	22627	929.444660656883	236
0	22663	930.606556628613	237
0	22668	930.778693836511	238
0	22674	930.950831044409	239
0	22700	932.443116674503	240
0	22705	932.742879345628	241
0	23061	948.636521094146	242
0	23067	948.934624771413	243
0	23198	954.459969660512	244
0	23261	957.320525899644	245
0	23269	957.929992824273	246
0	23301	959.429220833083	247
0	23325	960.54050777943	248
0	23418	964.11190404585	249
0	23426	964.530162842664	250
0	23461	966.375696761252	251
0	23474	966.925360877133	252
0	23502	968.589985580591	253
0	23505	968.60541475448	254
0	23699	977.844635798691	255
0	23706	978.035711483792	256
0	23764	980.573731523474	257
0	23819	982.730166719588	258
0	23860	984.916096982853	259
0	23864	985.441937384718	260
0	23873	985.665710987258	261
0	24099	996.160307048928	262
0	24135	997.659535057738	263
0	24157	998.519613101896	264
0	24295	1004.860172923086	265
0	24353	1006.734930740753	266
0	24355	1006.907067948651	267
0	24358	1007.123965638488	268
0	24402	1009.38775835389	269
0	24412	1009.653359128218	270
0	24440	1010.761124299077	271
0	24451	1011.041750036384	272
0	24455	1011.277535922771	273
0	24475	1012.098299867139	274
0	24484	1012.651815145838	275
0	24558	1016.179136500096	276
0	24570	1016.572022375761	277
0	24578	1017.149499172268	278
0	24757	1025.229633808027	279
0	24762	1025.401771015925	280
0	24929	1033.327978962078	281
0	24958	1034.390621273583	282
0	25027	1037.003005556014	283
0	25077	1039.33264022432	284
0	25110	1041.080856369518	285
0	25114	1041.128261253237	286
0	25116	1041.300398461135	287
0	25221	1046.384445344063	288
0	25272	1048.762936953632	289
0	25276	1049.01650437879	290
0	25716	1068.246368954342	291
0	25885	1075.78565508229	292
0	25888	1075.791528723756	293
0	25919	1077.118619524668	294
0	25931	1077.837613027394	295
0	25934	1077.868233529073	296
0	26073	1084.092917962156	297
0	26359	1096.608583639198	298
0	26377	1097.017016246895	299
0	26460	1100.629568964848	300
0	26470	1101.106267665628	301
0	26530	1104.467052400774	302
0	26552	1105.344717329504	303
0	26560	1105.565708919232	304
0	26562	1105.73784612713	305
0	26591	1107.103179700868	306
0	26680	1110.05986569416	307
0	26682	1110.169389456503	308
0	26766	1114.70519068356	309
0	26887	1120.190892191549	310
0	26897	1120.537892247121	311
0	26950	1123.074694233678	312
0	26955	1123.466580327844	313
0	26982	1124.205310788128	314
0	27003	1125.093915806588	315
0	27008	1125.518538272948	316
0	27021	1125.917032888934	317
0	27294	1138.350755882096	318
0	27354	1141.412180021466	319
0	27360	1141.585423903498	320
0	27396	1142.951528562608	321
0	27401	1143.084651912308	322
0	27494	1147.698946674553	323
0	27516	1148.676224358939	324
0	27523	1149.081563947548	325
0	27588	1152.325175744157	326
0	27592	1152.496200976064	327
0	27687	1156.577703991598	328
0	27717	1157.691278085081	329
0	27724	1158.076932000408	330
0	27753	1160.271996618416	331
0	28004	1171.356794434688	332
0	28012	1171.438052447446	333
0	28117	1176.165638366934	334
0	28197	1180.033193506389	335
0	28342	1186.562264167798	336
0	28762	1206.224365490226	337
0	28828	1209.145202151438	338
0	28862	1210.865310024668	339
0	28872	1211.297349930089	340
0	28874	1211.469487137987	341
0	28891	1212.393414733364	342
0	28910	1213.12910274007	343
0	28967	1215.797210339593	344
0	28969	1215.899742738229	345
0	28982	1216.546824343998	346
0	29092	1222.184273601678	347
0	29117	1222.937464009944	348
0	29125	1223.293350383643	349
0	29323	1232.632992852299	350
0	29326	1232.653723175216	351
0	29331	1233.038332440908	352
0	29365	1234.72207256747	353
0	29466	1239.559147312914	354
0	29471	1239.740205361006	355
0	29509	1242.033700493768	356
0	29512	1242.084019904528	357
0	29607	1245.796907119366	358
0	29632	1246.799168269184	359
0	29637	1247.0859934711	360
0	29667	1248.829718418643	361
0	29675	1249.349786186502	362
0	29735	1251.613578901904	363
0	29756	1252.643838295101	364
0	29758	1252.667672261092	365
0	29844	1256.141164332708	366
0	29847	1256.229464998496	367
0	29849	1256.276366577463	368
0	29890	1258.562535190247	369
0	29943	1261.061770970406	370
0	29996	1263.580667983783	371
0	30069	1267.054201711855	372
0	30081	1267.460127909718	373
0	30097	1268.56131400961	374
0	30153	1270.374910092464	375
0	30160	1270.699702626067	376
0	30171	1271.527488858042	377
0	30223	1274.456176938765	378
0	30244	1275.09005845712	379
0	30273	1276.515298771326	380
0	30520	1288.084128101346	381
0	30764	1299.004364828548	382
0	30870	1303.628913954899	383
0	31066	1312.667726629518	384
0	31072	1312.811245374368	385
0	31081	1313.247030912243	386
0	31108	1314.746258921053	387
0	31161	1317.263567648562	388
0	31239	1320.743170956293	389
0	31274	1322.137102184319	390
0	31280	1322.242398965103	391
0	31400	1327.489696995938	392
0	31427	1328.582531225572	393
0	31442	1329.738539009153	394
0	31461	1330.488153013558	395
0	31475	1331.237767017963	396
0	31492	1331.987381022368	397
0	31500	1332.736995026773	398
0	31510	1333.110116656376	399
0	31566	1335.373909371778	400
0	31597	1336.485065048798	401
0	31633	1338.733907062013	402
0	31680	1341.102135562304	403
0	31685	1341.535623886764	404
0	31690	1341.732363079633	405
0	31759	1344.730819097253	406
0	31792	1345.824707517454	407
0	31987	1355.748043810396	408
0	32005	1356.724643167733	409
0	32041	1358.223871176543	410
0	32272	1369.330800102808	411
0	32279	1369.514052130565	412
0	32401	1374.836160223409	413
0	32442	1376.964221286668	414
0	32468	1378.385970964416	415
0	32578	1383.882884534211	416
0	32616	1385.959589339528	417
0	32773	1392.96876757352	418
0	32778	1393.455729383578	419
0	32810	1394.954957392388	420
0	32840	1396.454185401198	421
0	32843	1396.496312687632	422
0	32925	1400.374392631121	423
0	32959	1401.844955276514	424
0	32970	1402.399064302832	425
0	32972	1402.451097436438	426
0	32992	1403.287690833838	427
0	33021	1405.55148354924	428
0	33159	1411.843460731269	429
0	33169	1412.196079493703	430
0	33209	1414.444921506918	431
0	33211	1414.570264594704	432
0	33224	1415.027630792018	433
0	33263	1416.693763520133	434
0	33379	1421.868870866005	435
0	33464	1426.438745577398	436
0	33552	1430.689954490768	437
0	33752	1439.903401710902	438
0	33758	1440.12025122008	439
0	33961	1449.550547949392	440
0	33990	1451.208213660354	441
0	34167	1459.882508718888	442
0	34325	1467.090039023166	443
0	34545	1478.144831588776	444
0	34699	1484.93523421823	445
0	34723	1486.091652463035	446
0	34746	1487.157479934203	447
0	34794	1489.406321947418	448
0	34978	1498.401690000278	449
0	35055	1502.149760022303	450
0	35102	1504.973541544017	451
0	35112	1505.158363026928	452
0	35168	1507.397058053138	453
0	35171	1507.42215574233	454
0	35248	1510.84747668992	455
0	35287	1513.095886364521	456
0	35325	1514.249153957759	457
0	35355	1515.562625054576	458
0	35472	1521.603785557126	459
0	35557	1525.82575683433	460
0	35638	1529.302691572289	461
0	35643	1529.474828780187	462
0	35647	1529.708070148544	463
0	35652	1529.885478185288	464
0	35655	1530.06008289635	465
0	35673	1530.807229397591	466
0	35799	1536.936348987298	467
0	35802	1536.976278640729	468
0	35848	1539.115253757958	469
0	35951	1543.853515242512	470
0	36448	1567.429257065792	471
0	36483	1568.865406414348	472
0	36490	1569.615020418753	473
0	36811	1584.607300506853	474
0	36990	1593.446278927606	475
0	37049	1595.851510572928	476
0	37142	1600.51091598137	477
0	37184	1602.501449789214	478
0	37188	1602.598036612573	479
0	37232	1605.15044398304	480
0	37240	1605.596492630193	481
0	37399	1613.240786451179	482
0	37427	1614.467709324911	483
0	37430	1614.580740712352	484
0	37432	1614.639846532809	485
0	37439	1615.066218527424	486
0	37467	1616.404557729888	487
0	37516	1618.866180766555	488
0	37535	1619.295889077008	489
0	37549	1620.588772718293	490
0	37552	1620.61179151243	491
0	37620	1624.011037441664	492
0	37625	1624.351378604147	493
0	37802	1633.332210793178	494
0	37808	1633.441334170976	495
0	38175	1651.322946898898	496
0	38177	1651.495084106796	497
0	38223	1652.974890822474	498
0	38311	1657.017075994256	499
0	38346	1658.819086942948	500
0	38351	1658.991224150846	501
0	38374	1660.226831371014	502
0	38376	1660.398968578912	503
0	38400	1661.120190259399	504
0	38445	1663.623853105068	505
0	38500	1665.88764582047	506
0	38534	1667.166802476147	507
0	38543	1667.814454995808	508
0	38715	1676.815353445251	509
0	38794	1680.557893070693	510
0	38839	1682.349597007356	511
0	38870	1684.305963092718	512
0	38879	1684.76217431951	513
0	38902	1685.307966182192	514
0	38904	1685.382408306633	515
0	38912	1686.261780259088	516
0	39090	1694.738262911504	517
0	39092	1694.800559154388	518
0	39116	1695.872766472478	519
0	39132	1697.049401167603	520
0	39161	1698.548629176413	521
0	39191	1699.492384637401	522
0	39244	1702.418374139384	523
0	39271	1703.819587346737	524
0	39276	1703.925888480377	525
0	39279	1704.168559640816	526
0	39284	1704.372121982304	527
0	39346	1707.543997229273	528
0	39370	1708.602636942287	529
0	39504	1715.212274481221	530
0	39534	1716.549457816546	531
0	39537	1716.657095536051	532
0	39670	1723.285891321778	533
0	39680	1724.035505326183	534
0	39705	1724.746256420922	535
0	39793	1728.99647117366	536
0	39802	1729.273841851726	537
0	39814	1730.032417361423	538
0	39867	1732.459449828752	539
0	39874	1733.030873379043	540
0	39976	1738.329012713334	541
0	39988	1739.027785414283	542
0	40019	1740.592805428736	543
0	40044	1741.889746558064	544
0	40046	1742.026241431903	545
0	40077	1743.553691718032	546
0	40089	1744.275083445118	547
0	40226	1751.320043287376	548
0	40246	1751.911769005746	549
0	40281	1754.175561721148	550
0	40339	1756.283562187841	551
0	40353	1757.018521520003	552
0	40385	1758.703147151952	553
0	40387	1758.853828603484	554
0	40416	1760.267992156525	555
0	40425	1760.750340016688	556
0	40567	1767.394154340809	557
0	40626	1770.180636746	558
0	40663	1772.177203936359	559
0	40667	1772.285903444364	560
0	40726	1774.895785110656	561
0	40731	1775.340975215068	562
0	40755	1776.534951125828	563
0	40767	1777.258099638938	564
0	40834	1780.256555656558	565
0	40981	1788.070845684877	566
0	41104	1793.261748147518	567
0	41113	1793.75637856928	568
1	0	0	0
1	166	2.172137207898	5
1	173	2.921751212303	4
1	182	4.263792715402	3
1	190	5.170593225518	2
1	195	5.920207229923	1
1	201	6.527585430804	0
1	288	11.271028267628	1
1	298	11.430296729312	0
1	319	12.020642272033	1
1	355	13.362683775132	2
1	373	14.269484285248	3
1	384	14.674699887146	2
1	395	15.019098289653	3
1	414	15.626476490534	4
1	429	15.768712294058	5
1	432	15.798613698432	4
1	435	15.812284772729	5
1	438	15.837326495086	4
1	468	16.518326298463	5
1	493	17.164417295998	4
1	499	17.336193704283	3
1	501	17.336650866182	4
1	521	17.846549007814	3
1	525	18.017554307273	4
1	548	18.754076876771	3
1	563	19.377117603571	2
1	566	19.413259309213	1
1	579	19.853259730242	0
1	602	20.197658132749	1
1	613	20.369919327358	2
1	621	20.525678485728	3
1	623	20.529187789042	4
1	650	21.016010324893	5
1	654	21.119533331763	6
1	676	21.662101322428	5
1	685	21.864867293541	4
1	691	22.078066071367	3
1	705	22.411715326833	2
1	706	22.461574834862	3
1	729	23.368375344978	4
1	747	23.773590946876	5
1	755	24.092265968227	4
1	757	24.117989349383	5
1	772	24.725367550264	6
1	783	24.867603353788	5
1	784	24.897504758162	6
1	787	24.911175832459	5
1	790	24.936217554816	6
1	799	25.239072198727	5
1	820	25.57574182328	4
1	822	25.617217358193	5
1	855	26.263308355728	6
1	861	26.434627602114	5
1	862	26.435084764013	6
1	867	26.435541925912	5
1	875	26.572023579355	4
1	880	26.607221971911	3
1	891	26.901719869422	2
1	898	26.945440067544	3
1	905	27.07385707732	2
1	907	27.116445367003	3
1	927	27.659013357668	2
1	938	27.852967936501	3
1	949	28.033169788066	2
1	966	28.408627362073	1
1	969	28.476008663301	2
1	973	28.512150368943	3
1	981	28.807414332883	2
1	987	28.952150789972	3
1	1001	29.165512584824	2
1	1004	29.209232782946	3
1	1017	29.296549192479	4
1	1024	29.468810387088	5
1	1028	29.624569545458	6
1	1030	29.628078848772	5
1	1043	29.893152268489	4
1	1046	29.907855370883	3
1	1047	29.952465911726	4
1	1050	30.024886945626	3
1	1053	30.114901384623	4
1	1065	30.290890187936	3
1	1083	30.760992382158	4
1	1089	30.963758353271	5
1	1092	31.056345973936	4
1	1096	31.100722318	3
1	1102	31.176957131097	4
1	1111	31.349094338995	3
1	1118	31.429305300226	2
1	1123	31.510606386563	3
1	1125	31.560465894592	4
1	1128	31.579220587591	3
1	1152	32.467266404708	4
1	1167	32.872482006606	5
1	1180	33.191157027957	6
1	1182	33.216880409113	5
1	1189	33.367231430042	4
1	1203	33.655925392908	3
1	1218	33.966494413518	4
1	1219	34.010066892189	5
1	1233	34.337963258457	6
1	1244	34.665859624725	5
1	1245	34.67463288301	6
1	1246	34.716108417923	5
1	1260	35.155153401718	4
1	1271	35.270759352089	3
1	1274	35.327290609616	2
1	1280	35.533518661844	3
1	1282	35.534432985642	4
1	1284	35.670914639085	5
1	1288	35.706113031641	6
1	1298	35.79978881076	5
1	1306	35.904767406123	4
1	1314	36.000610929152	5
1	1319	36.044331127274	6
1	1322	36.17274813705	5
1	1325	36.215336426733	6
1	1345	36.757904417398	5
1	1353	36.951858996231	6
1	1358	37.132060847796	5
1	1369	37.507518421803	6
1	1371	37.574899723031	5
1	1372	37.611041428673	6
1	1378	37.906305392613	5
1	1384	38.051041849702	6
1	1394	38.264403644554	5
1	1395	38.308123842676	6
1	1399	38.395440252209	5
1	1405	38.567701446818	6
1	1410	38.726969908502	5
1	1420	38.903223423743	4
1	1421	38.992043328219	5
1	1422	39.006746430613	6
1	1425	39.051356971456	5
1	1427	39.123778005356	6
1	1431	39.213792444353	5
1	1433	39.379253337724	6
1	1434	39.389781247666	5
1	1446	39.721186917248	4
1	1448	39.859883441888	5
1	1454	39.985907716745	4
1	1459	40.062649413001	5
1	1465	40.155237033666	6
1	1468	40.199489391019	5
1	1469	40.19961337773	6
1	1476	40.275848190827	5
1	1485	40.447985398725	6
1	1490	40.528196359956	5
1	1494	40.609497446293	6
1	1496	40.659356954322	5
1	1498	40.678111647321	6
1	1515	41.152065436958	5
1	1531	41.566157464438	6
1	1543	41.85801693005	5
1	1546	41.901679441363	4
1	1548	41.971373066336	5
1	1557	42.315771468843	6
1	1564	42.466122489772	5
1	1576	42.754816452638	6
1	1585	43.065385473248	5
1	1587	43.108957951919	6
1	1598	43.400907450173	5
1	1605	43.764750684455	6
1	1608	43.814999477653	5
1	1618	44.092647050723	6
1	1620	44.150521454578	5
1	1622	44.254044461448	6
1	1625	44.369650411819	5
1	1630	44.426181669346	6
1	1647	44.598318877244	5
1	1649	44.632409721574	6
1	1652	44.633324045372	5
1	1657	44.769805698815	6
1	1665	44.89867987049	5
1	1668	45.003658465853	6
1	1672	45.099501988882	5
1	1677	45.109092248583	4
1	1684	45.27163919678	5
1	1697	45.649749463388	4
1	1702	45.856795477128	5
1	1718	46.230951907526	6
1	1726	46.673790782761	5
1	1730	46.953567304872	4
1	1735	47.005196452343	5
1	1749	47.363294704284	6
1	1754	47.494331311939	5
1	1766	47.825860968232	6
1	1773	48.090934387949	5
1	1774	48.150248031186	6
1	1778	48.312683504083	5
1	1784	48.488672307396	6
1	1800	48.958774501618	5
1	1813	49.161540472731	6
1	1818	49.298380450749	5
1	1822	49.374739250557	6
1	1831	49.627087419686	5
1	1832	49.758248014052	6
1	1840	50.147433489818	5
1	1844	50.250956496688	6
1	1862	50.595230912484	5
1	1883	50.95690798978	6
1	1887	51.070264126066	5
1	1895	51.414538541862	4
1	1900	51.565013549502	5
1	1902	51.646661498628	4
1	1917	52.164276532978	5
1	1926	52.499798509903	6
1	1941	52.913890537383	5
1	1948	53.249412514308	6
1	1953	53.468541471549	5
1	1965	53.694273127956	4
1	1967	53.697209936974	5
1	1974	53.732215105102	6
1	1983	53.866632011216	5
1	1986	53.99757093022	6
1	1997	54.198393048612	5
1	2005	54.37053025651	6
1	2020	54.955686536858	5
1	2027	55.394731520653	4
1	2034	55.613163367815	3
1	2039	55.772681842491	4
1	2051	56.104087512073	5
1	2062	56.593222371669	6
1	2077	56.762740594884	5
1	2082	56.934877802782	4
1	2083	57.189825447679	5
1	2092	57.411574563813	6
1	2095	57.459799212956	5
1	2113	58.057665561348	6
1	2127	58.397271510479	5
1	2129	58.401939977144	4
1	2137	58.581780375872	3
1	2140	58.59481788505	2
1	2142	58.725978479416	3
1	2144	58.765785427132	2
1	2151	59.142801542678	1
1	2152	59.246324549548	2
1	2162	59.694121972214	3
1	2168	59.780207201648	2
1	2171	59.795551894161	1
1	2179	60.169155185796	2
1	2185	60.446619384162	1
1	2192	60.663904609232	2
1	2213	61.083832689515	1
1	2218	61.12512048723	0
1	2226	61.263167592708	1
1	2233	61.490453636813	0
1	2248	62.012781597113	1
1	2260	62.567432531279	2
1	2272	62.796100996704	3
1	2277	62.911706947075	2
1	2278	62.965523070946	3
1	2287	63.122403315854	2
1	2296	63.297284108342	3
1	2320	64.054577596588	4
1	2340	64.570989220282	3
1	2347	64.871572902221	4
1	2359	65.202978571803	5
1	2365	65.358395438072	4
1	2371	65.387984525915	3
1	2387	65.861631654614	4
1	2402	66.288716507409	5
1	2414	66.558690272686	6
1	2434	67.496162570209	5
1	2442	67.824869539146	6
1	2444	67.890328648787	5
1	2456	68.138169595538	4
1	2460	68.345215609278	5
1	2465	68.393440258421	4
1	2482	68.793013031944	5
1	2490	69.031381769233	4
1	2496	69.268046245526	5
1	2514	69.762795668962	6
1	2536	70.362058652438	5
1	2540	70.416750326746	4
1	2550	71.111672656843	5
1	2552	71.136625613158	4
1	2560	71.666323591009	5
1	2571	71.894992056434	6
1	2580	72.064414130676	5
1	2584	72.151842135349	4
1	2588	72.177574177462	3
1	2594	72.396175168072	4
1	2609	72.72722546984	3
1	2623	73.153468656318	4
1	2638	73.662981042264	3
1	2645	73.970463961951	4
1	2648	74.030409976216	3
1	2656	74.301869631533	4
1	2659	74.374684392012	3
1	2662	74.441366892864	2
1	2665	74.54682159991	1
1	2669	74.65942717565	0
1	2684	74.960522714344	1
1	2691	75.193363924487	0
1	2692	75.387607567139	1
1	2709	75.673848950166	0
1	2733	76.595053629939	1
1	2737	76.705159608266	0
1	2745	76.989219708517	1
1	2758	77.444106669008	2
1	2765	77.676104768252	1
1	2775	77.883151652803	0
1	2776	77.891904091674	1
1	2782	78.366937305256	2
1	2791	78.711211721052	1
1	2812	79.460949712168	2
1	2831	80.131993666018	1
1	2834	80.210563716573	2
1	2853	80.765214650739	3
1	2859	80.881607670423	2
1	2868	81.096620320321	1
1	2870	81.163305190406	2
1	2881	81.495066227802	3
1	2885	81.582679033335	2
1	2905	82.157522199152	1
1	2909	82.252359716048	2
1	2916	82.401187178765	1
1	2923	82.784902633439	0
1	2932	83.069355021681	1
1	2939	83.400760691263	2
1	2964	83.905718853702	1
1	2967	83.917172314957	0
1	2968	84.059413774074	1
1	2986	84.486498626869	2
1	2993	84.629677692448	1
1	3024	85.693944689669	2
1	3037	86.088110768247	3
1	3040	86.128905701258	2
1	3048	86.542997728738	3
1	3068	86.990795151404	4
1	3072	87.01322404188	3
1	3089	87.465828364986	4
1	3094	87.628133710068	3
1	3119	88.559840771898	4
1	3135	89.309454776303	5
1	3144	89.864105710469	6
1	3159	90.262196250136	5
1	3171	90.593957287532	6
1	3175	90.789718725826	5
1	3194	91.351250775778	6
1	3199	91.376203732093	5
1	3208	91.567490698684	4
1	3212	91.587818928464	3
1	3220	92.125817736498	2
1	3221	92.168246081411	3
1	3231	92.433319501128	2
1	3235	92.499651750993	3
1	3239	92.55170861608	2
1	3249	92.875431740903	1
1	3262	93.158304833804	2
1	3268	93.330442041702	1
1	3275	93.585389686599	2
1	3295	94.792835749399	3
1	3313	95.187001827977	4
1	3321	95.641888788468	5
1	3343	96.089686211134	6
1	3346	96.104205465091	5
1	3359	96.440011467878	4
1	3367	96.564719424716	5
1	3370	96.623501762928	4
1	3378	97.079294046884	3
1	3387	97.373115767333	2
1	3389	97.658731831628	3
1	3409	98.408345836033	4
1	3440	99.361087309866	5
1	3460	99.830691425544	4
1	3466	99.888609785556	5
1	3479	100.371571784953	4
1	3482	100.475094791823	5
1	3502	101.121185789358	4
1	3506	101.267137141141	5
1	3515	101.598542810723	6
1	3542	102.257195893534	5
1	3550	102.684280746329	6
1	3554	102.766312312326	5
1	3566	103.370027802573	4
1	3577	103.87067219309	3
1	3578	103.891726809129	4
1	3592	104.285892887707	5
1	3604	104.740779848198	6
1	3611	104.869255811383	5
1	3624	105.203096524821	6
1	3637	105.663610484446	5
1	3642	105.730454050687	4
1	3645	105.733264022432	3
1	3647	105.902591258585	2
1	3654	106.134464908492	1
1	3667	106.757622891358	2
1	3674	106.996782451123	1
1	3679	107.118097824598	0
1	3686	107.507236895763	1
1	3714	108.459978369596	2
1	3720	108.617325833408	1
1	3724	108.789463041306	0
1	3727	108.987500845286	1
1	3735	109.366939837813	0
1	3744	109.573985851553	1
1	3759	110.116553842218	0
1	3760	110.366028200871	1
1	3767	110.448412387088	0
1	3794	111.356086953264	1
1	3802	111.662791934902	0
1	3803	111.865203372056	1
1	3810	111.983327959652	0
1	3833	112.990617868859	1
1	3848	113.384783947437	2
1	3854	113.864623864243	1
1	3859	113.968146871113	2
1	3886	114.730429696943	1
1	3887	114.762501544176	2
1	3908	115.272950283744	1
1	3912	115.730000871571	0
1	3919	115.856513951088	1
1	3929	116.606127955493	2
1	3953	117.453428485502	1
1	3958	117.558869429326	2
1	3962	117.591103788322	1
1	3976	118.086391905016	2
1	3984	118.279652619914	1
1	3986	118.451789827812	0
1	3990	118.672876911283	1
1	4014	119.464919260601	2
1	4023	119.717221200904	1
1	4034	119.930148833911	0
1	4048	120.454978012994	1
1	4057	120.964094431786	2
1	4061	121.04336829568	1
1	4071	121.360763908293	0
1	4086	122.089508928589	1
1	4093	122.483675007167	2
1	4097	122.641447959898	1
1	4112	123.067037930843	2
1	4126	123.609605921508	1
1	4130	123.861392603906	2
1	4141	124.244806631708	1
1	4158	124.955405010818	2
1	4164	125.108833930318	1
1	4166	125.467627600071	0
1	4173	125.705019015223	1
1	4177	125.858447934723	0
1	4203	126.657760489056	1
1	4211	127.185282964746	2
1	4220	127.357675943533	1
1	4223	127.771767971013	2
1	4227	127.87696970817	1
1	4239	128.116042386809	0
1	4244	128.563810320331	1
1	4251	128.772392062512	0
1	4278	129.553869072724	1
1	4283	129.72234898543	0
1	4292	130.062985491516	1
1	4295	130.066623401226	0
1	4321	131.188399988319	1
1	4325	131.582566066897	2
1	4328	131.630424356521	1
1	4341	132.165928990573	2
1	4350	132.583023076809	1
1	4354	132.960283663636	2
1	4366	133.299977493316	1
1	4368	133.354587978773	0
1	4384	134.054296070548	1
1	4388	134.104201983178	0
1	4403	134.803910074953	1
1	4407	134.853815987583	0
1	4431	135.756651548786	1
1	4440	136.284174024476	2
1	4458	136.870659030743	3
1	4472	137.662701380061	4
1	4489	138.006975795857	3
1	4506	138.652760132454	4
1	4514	138.739302575024	3
1	4523	139.161876551246	4
1	4545	140.091355639522	3
1	4547	140.101114018418	2
1	4551	140.287291048049	3
1	4561	140.681457126627	4
1	4565	140.850728022823	3
1	4569	141.264820050303	4
1	4588	141.833929115173	3
1	4590	142.006066323071	2
1	4593	142.059174723366	3
1	4607	142.403449139162	2
1	4614	143.078924713264	1
1	4617	143.099570036038	0
1	4618	143.153187130278	1
1	4628	143.45445093968	0
1	4646	143.902801134683	1
1	4666	144.855542608516	2
1	4681	145.383065084206	3
1	4693	145.969550090473	4
1	4712	146.761592439791	5
1	4715	146.847640058063	4
1	4718	146.882733785728	3
1	4720	147.019777265961	2
1	4747	147.751651192184	3
1	4756	148.059570739091	2
1	4763	148.169599304336	1
1	4767	148.260767610976	2
1	4771	148.346868066873	1
1	4792	149.386182107779	2
1	4800	149.780348186357	3
1	4810	150.363711110033	4
1	4821	150.707985525829	3
1	4829	151.158065783096	4
1	4835	151.330202990994	3
1	4856	152.252078190008	4
1	4885	153.001692194413	5
1	4889	153.016689301201	4
1	4892	153.10209287375	3
1	4913	153.954433668246	4
1	4926	154.481956143936	5
1	4938	155.068441150203	6
1	4958	155.860483499521	5
1	4978	156.850542251914	6
1	4988	157.342236119733	5
1	4989	157.359658670706	6
1	4998	157.714129736865	5
1	5006	158.091850124138	4
1	5009	158.201697362738	3
1	5010	158.485073167509	4
1	5018	158.879239246087	5
1	5028	159.462602169763	6
1	5039	159.878324770302	5
1	5043	160.256956842826	6
1	5063	161.090306141758	5
1	5064	161.350969249738	6
1	5082	161.901254542505	5
1	5084	162.100583254143	6
1	5095	162.315044398304	5
1	5108	162.616994877837	4
1	5114	162.729282793542	3
1	5122	163.053324727976	4
1	5135	163.580847203666	5
1	5151	163.953212487609	4
1	5164	164.838376163783	3
1	5165	164.959374559251	4
1	5170	164.993075508944	3
1	5186	166.069180859288	2
1	5191	166.337604172593	1
1	5192	166.441127179463	2
1	5203	166.813020796595	3
1	5210	166.919387336041	2
1	5219	167.03019276296	1
1	5227	167.583964227239	2
1	5243	167.928238643035	1
1	5244	167.978130305817	2
1	5262	168.977215830032	3
1	5273	169.336060190213	2
1	5285	169.848075416764	1
1	5295	170.189197201488	2
1	5311	170.835288199023	1
1	5312	171.000145602235	2
1	5323	171.413935458034	3
1	5327	171.584902203428	2
1	5340	171.78445365515	1
1	5348	172.152215787706	2
1	5357	172.496490203502	1
1	5360	172.679738263396	2
1	5381	173.66297220602	1
1	5383	173.835109413918	0
1	5387	174.058265618981	1
1	5420	175.332972225453	0
1	5426	175.540018239193	1
1	5429	175.549848417762	0
1	5436	175.911911856325	1
1	5452	176.460489492272	0
1	5458	176.682855286969	1
1	5466	177.077021365547	2
1	5488	178.076106889762	3
1	5500	178.420381305558	2
1	5505	178.575831801356	1
1	5523	179.288088261218	2
1	5535	180.099036661965	3
1	5540	180.512826517764	4
1	5546	180.580270256288	3
1	5549	180.839624516758	2
1	5554	181.108003865241	1
1	5563	181.175637856928	0
1	5564	181.251106847436	1
1	5568	181.28109830186	0
1	5581	181.778629323126	1
1	5584	181.838937863956	0
1	5612	183.157156678711	1
1	5635	184.328340278313	0
1	5636	184.638909298923	1
1	5646	185.010802916055	2
1	5650	185.152282354972	1
1	5659	185.367209947562	0
1	5669	185.781746346699	1
1	5682	185.999705495021	0
1	5686	186.175912425277	1
1	5708	187.174997949492	2
1	5713	187.326796295933	1
1	5729	188.386979320948	2
1	5740	188.826024304743	1
1	5743	189.197927721695	2
1	5752	189.611717577494	3
1	5759	189.894795378366	2
1	5770	190.349997907166	3
1	5786	190.60593458624	2
1	5792	190.877520382856	3
1	5818	192.256047738441	4
1	5829	192.600322154237	3
1	5844	193.323708331173	2
1	5846	193.688538039541	1
1	5848	193.737800358653	2
1	5864	194.109693975785	3
1	5871	194.42238080917	2
1	5882	194.880637406429	3
1	5895	195.274803485007	4
1	5916	196.273889009222	5
1	5932	197.071778353198	4
1	5936	197.485746393967	3
1	5937	197.485870380678	4
1	5949	198.296818781425	5
1	5958	198.706670833077	4
1	5960	198.710608637224	5
1	5977	199.320620366413	4
1	5980	199.448888966896	5
1	5994	199.976411442586	6
1	6001	200.070234370818	5
1	6020	201.08715148818	4
1	6024	201.354938798171	5
1	6052	202.319076384033	4
1	6058	202.836691418383	5
1	6070	203.180965834179	4
1	6071	203.208585035515	5
1	6088	203.979528466159	6
1	6095	204.373694544737	5
1	6109	204.751379680208	4
1	6121	205.317532401653	3
1	6122	205.372780068952	4
1	6135	206.067146406058	3
1	6141	206.584761440408	4
1	6147	206.653491707336	3
1	6150	206.756898648306	2
1	6156	206.929035856204	1
1	6166	207.395709841155	2
1	6172	207.566374414868	1
1	6175	207.809499696954	2
1	6185	208.005137101582	1
1	6203	208.498048528546	0
1	6206	208.547780026626	1
1	6209	208.670185736444	0
1	6217	209.169125430548	1
1	6224	209.466528044864	0
1	6252	210.453829857901	1
1	6278	211.935582478113	2
1	6285	212.118150300914	1
1	6286	212.307476095245	2
1	6308	213.183692454087	1
1	6312	213.472585604467	2
1	6316	213.563286450108	1
1	6329	214.18167640952	0
1	6336	214.471671128682	1
1	6365	215.683652500138	2
1	6370	215.984265671221	1
1	6384	216.494600900885	2
1	6395	216.908390756684	3
1	6399	217.06030796319	2
1	6409	217.311356472133	1
1	6414	217.501739456565	0
1	6418	217.646671086356	1
1	6424	218.060970476538	0
1	6428	218.268016490278	1
1	6437	218.810584480943	0
1	6459	219.552720917631	1
1	6462	219.580958607422	0
1	6483	221.034473537843	1
1	6489	221.406367154975	2
1	6511	222.547133455854	1
1	6513	222.571476664197	2
1	6542	223.570562188412	3
1	6548	223.611973138832	2
1	6561	224.057882511778	1
1	6570	224.782543559868	2
1	6574	224.807496516183	1
1	6586	225.475821536577	0
1	6590	225.593491960615	1
1	6596	226.007281816414	2
1	6616	226.745562146086	3
1	6625	226.917699353984	2
1	6634	227.366907550008	3
1	6641	227.527779481681	2
1	6656	228.121214043911	1
1	6662	228.327121503488	0
1	6675	228.651611977361	1
1	6681	229.305180542613	0
1	6697	230.133364597573	1
1	6706	230.493954330113	0
1	6708	230.505258214705	1
1	6733	231.670367723927	2
1	6755	232.669453248142	3
1	6768	233.042269868144	2
1	6777	233.422642410836	1
1	6785	233.881434619598	2
1	6790	234.053571827496	1
1	6805	234.692383020345	2
1	6814	235.106172876144	3
1	6825	235.45044729194	2
1	6827	235.47460035594	1
1	6841	235.844453205816	2
1	6853	236.051706582258	1
1	6854	236.465798609738	2
1	6877	237.550934591068	1
1	6881	237.750503037091	2
1	6885	237.7574182328	1
1	6887	237.841822857848	0
1	6918	239.232255657303	1
1	6925	239.604149274435	2
1	6932	239.69823511721	1
1	6944	240.549390608688	0
1	6948	240.769258783657	1
1	6956	241.299004613093	0
1	6968	241.768344307872	1
1	7000	242.798232621903	0
1	7001	242.980325679328	1
1	7016	243.421421230199	0
1	7028	243.791274080075	1
1	7033	244.205063935874	2
1	7051	244.943344265546	3
1	7057	245.047074635118	2
1	7065	245.564689669468	3
1	7072	245.630199358357	2
1	7085	246.489613263416	1
1	7094	246.849394096821	2
1	7107	247.187714962112	1
1	7109	247.224041733889	0
1	7130	248.331146717033	1
1	7139	248.703040334165	2
1	7160	249.544758661548	1
1	7165	249.868149843387	2
1	7184	250.867235367602	3
1	7191	251.01719869422	2
1	7207	251.793600674763	1
1	7218	252.079216739058	2
1	7221	252.154141204743	1
1	7225	252.326278412641	0
1	7235	252.890165139805	1
1	7248	253.303954995604	2
1	7261	253.895475047889	1
1	7262	254.042235325276	2
1	7276	254.33441695289	1
1	7283	254.663580729198	2
1	7292	255.541670696788	1
1	7295	255.544784125024	0
1	7301	255.948285156551	1
1	7312	256.291284701193	0
1	7345	257.430037776763	1
1	7354	257.801931393895	2
1	7378	258.967040903117	3
1	7389	259.315062978717	2
1	7405	259.966126427332	3
1	7409	260.072369555828	2
1	7413	260.133234854341	1
1	7427	260.896269989926	0
1	7433	261.178107798788	1
1	7444	261.33316005608	0
1	7456	261.989056199535	1
1	7464	262.281237827149	0
1	7469	262.402846055334	1
1	7482	262.99390894572	0
1	7483	263.141126385006	1
1	7491	263.762471788928	2
1	7506	264.537038749648	1
1	7519	265.047176216281	2
1	7551	266.048308420736	1
1	7556	266.215348520738	0
1	7561	266.528928836493	1
1	7575	266.863747702034	0
1	7576	266.900822453625	1
1	7579	266.973522850918	0
1	7597	268.065931962847	1
1	7611	268.410206378643	0
1	7626	269.065017487062	1
1	7634	269.127540417436	0
1	7656	270.276998858518	1
1	7669	270.763456785392	0
1	7674	271.087947259265	1
1	7687	271.391333132838	0
1	7690	271.501737115064	1
1	7710	272.240017444736	2
1	7717	272.861362848658	3
1	7743	274.146067276011	4
1	7763	275.031634811318	3
1	7770	275.208704727235	2
1	7779	275.383741092345	1
1	7784	275.555878300243	0
1	7791	275.627819896223	1
1	7799	275.953386023621	0
1	7807	275.999713513355	1
1	7832	277.164823022577	2
1	7835	277.280476824533	1
1	7845	278.030090828938	0
1	7848	278.163908546792	1
1	7851	278.174879575667	0
1	7870	279.375889918248	1
1	7886	280.186838318995	2
1	7890	280.193753514704	1
1	7900	280.600628174794	2
1	7924	281.268886135268	1
1	7925	281.338908504466	2
1	7933	281.960253908388	3
1	7967	283.229972455613	2
1	7968	283.244958335741	3
1	8002	284.726710955953	4
1	8017	284.97408942525	3
1	8020	285.098604573085	4
1	8024	285.147897195736	3
1	8043	286.263714082307	4
1	8068	287.262799606522	5
1	8073	287.385838373564	4
1	8078	287.775072886203	3
1	8092	288.474780977978	4
1	8112	289.285729378725	5
1	8116	289.446438102911	4
1	8128	289.699519234524	5
1	8136	290.023914899418	4
1	8146	290.437799564196	5
1	8163	291.059144968118	6
1	8166	291.102346475753	5
1	8178	291.765467571456	4
1	8190	292.343849395471	5
1	8211	293.825602015683	6
1	8221	294.197495632815	5
1	8227	294.339198608672	4
1	8234	294.402547413836	3
1	8239	294.574684621734	2
1	8248	295.362605142037	3
1	8268	296.1502865419	2
1	8274	296.29305300226	1
1	8275	296.361690666252	2
1	8283	296.770440939063	1
1	8285	296.997209404908	0
1	8295	297.573672037708	1
1	8309	298.384620438455	2
1	8316	298.556845717662	1
1	8317	298.798410294254	2
1	8335	299.054346973328	1
1	8337	299.14268471005	0
1	8346	299.536690623926	1
1	8354	299.768896956683	0
1	8357	300.201237535483	1
1	8378	300.820638433064	0
1	8382	301.442740455201	1
1	8390	301.787014870997	0
1	8414	303.296386692545	1
1	8441	304.461496201767	2
1	8450	304.944030279167	1
1	8453	305.016194987518	0
1	8468	305.460581725982	1
1	8484	306.672563097438	2
1	8506	307.188974721132	1
1	8510	307.483511498185	2
1	8521	307.897301353984	3
1	8524	308.014651005138	2
1	8538	308.48464370264	1
1	8540	308.542728552833	0
1	8545	308.635581683656	1
1	8550	308.764265009543	0
1	8553	309.300128595213	1
1	8567	309.644403011009	0
1	8584	310.541631514931	1
1	8592	311.013107022758	0
1	8619	312.395277752275	1
1	8623	312.512335031568	0
1	8650	313.560387261497	1
1	8668	314.551701033429	0
1	8669	314.559472785712	1
1	8677	314.761177044783	0
1	8693	315.771454157168	1
1	8706	316.582402557915	2
1	8710	316.667187440878	1
1	8714	316.996192413714	2
1	8735	317.584512332706	1
1	8739	317.734472743386	2
1	8751	317.914940431952	1
1	8753	317.969515978831	0
1	8762	318.399019654943	1
1	8777	319.640522574661	2
1	8800	320.461983677844	1
1	8811	320.80625809364	0
1	8823	321.494168812005	1
1	8827	321.507703084428	0
1	8852	322.659278321227	1
1	8865	323.027184107626	0
1	8882	323.658363845442	1
1	8901	324.870345216898	2
1	8907	325.019682409889	1
1	8913	325.681293617645	2
1	8930	326.095083473444	3
1	8949	326.833363803116	4
1	8952	327.002435741728	3
1	8964	327.497910714673	4
1	8980	328.254229124073	3
1	8987	328.739413634391	4
1	8990	328.784492901944	3
1	9012	329.715757529814	2
1	9031	330.593059871735	3
1	9039	330.836450847048	2
1	9047	331.252685141693	1
1	9051	331.758169380957	2
1	9064	332.06038552592	1
1	9074	332.513736448692	0
1	9086	332.757254905172	1
1	9105	333.969236276628	2
1	9122	334.768968306119	1
1	9126	334.780184677375	2
1	9136	335.124459093171	1
1	9137	335.193974533174	2
1	9162	335.932254862846	3
1	9179	336.596801774403	4
1	9188	336.775533890576	3
1	9198	337.041321879496	2
1	9210	337.838304694121	3
1	9230	338.783271721307	2
1	9237	339.136864933593	1
1	9254	339.691950931465	2
1	9264	340.248053194553	1
1	9271	340.857060440687	2
1	9282	341.169804406856	1
1	9291	341.490682255232	0
1	9309	341.856145964902	1
1	9327	343.068127336358	2
1	9349	343.879075737105	3
1	9360	344.292865592904	4
1	9376	344.678134650462	3
1	9384	344.917874428881	2
1	9385	345.031145922576	3
1	9394	345.695692834133	4
1	9411	346.205830619888	3
1	9413	346.244965229793	2
1	9424	346.937195753851	3
1	9452	348.360285456506	2
1	9464	348.790841991195	3
1	9478	349.696267443998	2
1	9487	349.913526660971	1
1	9488	349.955951500417	2
1	9491	350.085663868869	1
1	9504	350.624078171908	0
1	9519	350.955037024632	1
1	9526	350.963271969824	0
1	9544	352.167018396088	1
1	9551	352.624955524721	0
1	9562	352.977966796835	1
1	9565	352.991491269438	0
1	9573	353.391756652634	1
1	9585	353.97824792403	0
1	9588	354.130036982306	1
1	9597	354.676913469825	0
1	9602	354.794583893863	1
1	9616	355.151663602712	0
1	9639	356.036086813581	1
1	9670	357.889733050925	2
1	9680	358.238789300273	1
1	9693	359.054842560147	2
1	9715	359.765950110062	1
1	9722	360.053928084362	2
1	9749	361.265909455818	3
1	9761	362.076857856565	4
1	9770	362.481389238316	3
1	9771	362.490647712364	4
1	9789	363.228928042036	5
1	9807	363.891205807285	4
1	9808	363.893474953593	5
1	9834	365.066424078512	4
1	9837	365.134977873311	5
1	9850	365.589909192516	4
1	9880	366.988624110655	5
1	9895	368.153733619877	6
1	9907	368.733385361943	5
1	9910	368.734419895124	4
1	9920	369.152819144092	5
1	9937	369.781572443168	4
1	9948	370.232613370753	3
1	9949	370.364800515548	4
1	9952	370.570555218343	3
1	9960	370.982227375158	2
1	9966	371.175748916295	3
1	9969	371.347886124193	2
1	9976	371.589538772094	3
1	9980	371.731841379563	2
1	9992	372.327819101766	3
1	10002	372.992366013323	4
1	10019	373.336640429119	3
1	10023	373.536730066775	2
1	10032	373.980683392778	1
1	10038	374.233868933041	2
1	10052	374.530240534819	1
1	10068	375.479911401588	0
1	10077	376.087515170385	1
1	10106	377.832276421673	2
1	10111	378.251710203822	3
1	10121	378.517376092602	2
1	10124	378.595984619618	1
1	10141	379.21186917248	0
1	10148	379.463691575278	1
1	10164	380.274639976025	2
1	10171	380.688429831824	3
1	10174	380.727209432423	2
1	10193	381.426710161496	3
1	10210	382.062309224813	2
1	10211	382.091257073053	3
1	10217	382.317176187536	2
1	10225	382.909328219708	1
1	10228	383.332759992771	2
1	10241	383.725665450043	1
1	10260	384.580968902938	0
1	10273	385.186406230115	1
1	10276	385.233832868009	0
1	10301	386.931167481403	1
1	10313	387.295924249457	0
1	10317	387.350601263552	1
1	10325	387.640198665253	0
1	10348	388.562582635008	1
1	10369	389.373531035755	2
1	10382	389.787320891554	3
1	10396	390.371983515354	2
1	10397	390.525601221226	3
1	10401	390.544120723252	2
1	10408	390.888395139048	1
1	10412	391.190148132783	2
1	10415	391.221805494093	1
1	10418	391.372347049144	0
1	10436	392.431651052501	1
1	10462	393.357314266448	0
1	10486	394.285297289845	1
1	10490	394.41101784112	0
1	10516	396.030058541133	1
1	10534	396.449492323282	2
1	10547	397.218717529333	1
1	10552	397.377192689552	0
1	10554	397.661473694738	1
1	10572	398.072462631104	0
1	10584	398.472422095485	1
1	10594	398.886211951284	2
1	10597	399.058349159182	1
1	10608	399.467559542548	0
1	10609	399.624492280956	1
1	10624	400.289039192513	2
1	10627	400.305880770275	1
1	10631	400.427517910752	0
1	10646	401.530542112231	1
1	10663	402.357838715379	0
1	10689	403.384188349575	1
1	10720	404.955103341556	0
1	10723	405.128949600863	1
1	10729	405.324013563811	0
1	10739	405.548383383012	1
1	10754	406.760364754468	2
1	10766	407.218896056958	1
1	10777	407.502759360416	0
1	10783	407.571313155215	1
1	10787	407.69613373371	0
1	10790	407.985103011014	1
1	10804	408.252701644534	0
1	10819	408.723383340686	1
1	10823	408.728956981098	0
1	10834	409.387930252243	1
1	10849	409.962155604218	0
1	10859	410.629433171961	1
1	10862	410.711769608623	0
1	10908	412.483079409305	1
1	10917	412.960611621838	0
1	10938	414.227840660593	1
1	10953	414.647274442742	2
1	10963	415.209453635053	1
1	10969	415.859255814198	2
1	10973	415.959067639458	1
1	10979	416.199522518793	0
1	10989	416.670204214945	1
1	10992	416.708681643863	0
1	11004	417.083994070744	1
1	11013	417.458295648268	0
1	11021	417.822274400416	1
1	11040	418.486821311973	2
1	11069	419.728324231691	3
1	11086	420.80165234937	2
1	11099	421.341777667538	1
1	11106	421.581970469035	2
1	11110	421.648204454384	1
1	11117	421.955979674698	0
1	11144	423.326731720323	1
1	11147	423.455207683508	0
1	11153	423.746165502472	1
1	11179	424.954435692318	0
1	11180	424.958146873928	1
1	11203	425.769095274675	2
1	11213	426.182885130474	3
1	11216	426.198301338156	2
1	11228	426.36335281904	1
1	11230	426.485183749756	0
1	11239	426.921165460146	1
1	11259	427.585712371703	2
1	11264	427.593030495576	1
1	11284	428.827215291421	2
1	11312	430.680861528765	3
1	11328	431.078501183696	2
1	11348	432.093164267311	1
1	11352	432.12061592638	0
1	11356	432.425622780053	1
1	11371	432.845056562202	2
1	11380	433.200189740773	1
1	11394	434.057037933658	2
1	11398	434.145122212415	1
1	11404	434.384408641782	0
1	11415	434.867986334405	1
1	11424	435.281776190204	2
1	11440	435.793649548352	1
1	11444	436.020056519876	2
1	11455	436.364330935672	1
1	11460	436.53646814357	0
1	11464	436.684603431433	1
1	11476	437.111297060847	0
1	11496	437.926106351151	1
1	11507	438.678625774086	0
1	11529	439.779752588495	1
1	11532	439.946715780418	0
1	11570	441.524513839783	1
1	11573	441.538721364286	0
1	11584	441.943947621932	1
1	11590	442.091943086674	0
1	11609	443.155928993388	1
1	11625	443.966877394135	2
1	11636	444.311151809931	1
1	11637	444.380667249934	2
1	11666	445.118947579606	3
1	11673	445.223946277664	2
1	11684	445.783494491163	3
1	11691	445.943627815658	2
1	11705	446.693241820063	1
1	11706	447.024997410881	2
1	11732	448.192469828873	1
1	11745	448.878643648225	2
1	11748	448.893352963653	1
1	11776	450.038763960933	0
1	11793	450.623404899513	1
1	11805	451.042838681662	2
1	11818	451.940539850898	1
1	11822	452.254820053118	2
1	11829	452.494750364998	1
1	11844	453.004938809365	0
1	11846	453.065768453865	1
1	11856	453.479558309664	2
1	11877	454.217838639336	3
1	11880	454.384568702363	2
1	11886	454.654243006976	1
1	11898	454.882385550893	2
1	11901	454.967438547647	1
1	11906	455.688609872923	0
1	11914	456.123888470611	1
1	11926	456.468162886407	0
1	11955	457.977534707955	1
1	11988	459.722295959243	2
1	12003	460.141729741392	3
1	12011	460.464800526453	2
1	12021	460.951759683624	1
1	12023	461.353711112848	2
1	12036	461.685521908163	1
1	12046	462.164659513595	2
1	12059	462.578449369394	3
1	12072	463.316729699066	4
1	12087	463.880447764347	3
1	12093	463.934363921378	2
1	12094	463.981276610623	3
1	12098	464.084539736288	2
1	12107	464.683977925783	1
1	12118	465.222779530341	2
1	12159	467.076425767685	3
1	12167	467.682433943403	2
1	12191	468.799688100944	1
1	12195	468.821187018973	2
1	12213	469.240620801122	3
1	12231	470.452602172578	4
1	12239	470.605092088214	3
1	12254	471.14115100417	2
1	12261	471.263550573325	3
1	12267	471.361765777689	2
1	12271	471.677340429124	3
1	12282	471.878177401383	2
1	12291	472.180117969833	1
1	12298	472.352255177731	0
1	12299	472.415620758796	1
1	12311	473.080167670353	2
1	12320	473.511508507798	1
1	12337	474.321670590071	2
1	12346	474.840850821687	1
1	12359	475.178573987453	0
1	12369	476.175316827415	1
1	12382	476.845401432142	0
1	12396	477.920078078703	1
1	12417	478.229984830256	0
1	12420	478.339511860852	1
1	12448	479.551493232308	2
1	12463	480.362441633055	3
1	12466	480.425872018288	2
1	12467	480.776231488854	3
1	12475	481.175486022693	2
1	12485	481.514511818526	3
1	12493	481.826047457969	2
1	12499	481.925100027098	1
1	12503	482.179058730083	2
1	12508	482.351195937981	1
1	12526	482.945133194912	0
1	12532	483.420561649801	1
1	12556	484.187848380626	0
1	12576	485.274207887145	1
1	12590	485.790619510839	0
1	12620	487.018969138433	1
1	12629	487.438402920582	2
1	12635	487.651689646795	1
1	12653	488.650384292038	2
1	12662	488.71543381143	1
1	12671	489.461332692785	2
1	12674	489.633469900683	1
1	12680	489.875122548584	2
1	12698	490.613402878256	3
1	12707	490.957677294052	2
1	12710	490.979226526832	1
1	12716	491.277949789813	2
1	12730	491.842219292261	1
1	12744	492.519452709531	2
1	12749	492.73904318066	1
1	12784	494.373098946875	2
1	12800	495.418152106388	1
1	12803	495.506811957636	0
1	12812	496.117860198163	1
1	12816	496.167766110793	0
1	12827	496.537293980312	1
1	12855	497.666994119603	0
1	12858	497.749275351768	1
1	12862	497.770604673038	0
1	12873	498.560223752515	1
1	12880	498.904498168311	0
1	12881	498.974013608314	1
1	12903	499.712293937986	2
1	12919	500.376840849543	3
1	12947	501.618343769261	4
1	12959	501.962618185057	3
1	12981	502.586001588603	2
1	12995	503.471990006605	3
1	13001	503.614552135642	2
1	13015	504.561982819244	1
1	13020	505.163134163653	0
1	13021	505.216751257893	1
1	13030	505.636185040042	2
1	13040	505.912748168058	1
1	13057	506.520875018192	0
1	13065	506.848166411498	1
1	13076	507.411976176868	0
1	13079	507.659114812245	1
1	13086	508.072904668044	2
1	13101	508.632684929178	1
1	13106	508.811184997716	2
1	13109	508.911204185678	1
1	13117	509.475731909273	2
1	13145	510.717234828991	3
1	13161	511.160046198893	2
1	13164	511.236023382848	1
1	13169	511.35336096545	0
1	13188	512.570881066335	1
1	13197	513.016765383616	0
1	13220	514.315642317623	1
1	13233	514.691751557441	0
1	13234	514.735076099772	1
1	13243	515.079350515568	0
1	13264	515.947057471228	1
1	13269	515.951171747504	0
1	13292	516.758005871975	1
1	13302	517.156958234133	0
1	13303	517.171795727774	1
1	13327	517.910076057446	2
1	13342	518.574622969003	3
1	13346	518.656186242943	2
1	13362	519.816125888721	3
1	13368	520.155414251753	2
1	13381	520.543534190881	1
1	13390	520.66632011216	0
1	13413	521.669772126065	1
1	13426	522.67232454246	0
1	13436	523.414533377353	1
1	13449	523.833967159502	2
1	13457	524.029015889795	1
1	13462	524.526326677696	0
1	13477	525.045948530958	1
1	13497	525.52700107779	0
1	13505	525.856896931705	1
1	13515	526.270686787504	2
1	13518	526.442823995402	1
1	13531	527.008967117176	2
1	13551	527.673514028733	3
1	13564	528.401168300208	2
1	13565	528.915016948451	3
1	13583	529.463702688666	2
1	13585	529.506972703523	1
1	13602	530.053440489994	0
1	13619	530.768663185795	1
1	13644	532.513424437083	2
1	13656	532.898852326638	1
1	13657	532.932858219232	2
1	13672	533.648466331043	1
1	13678	534.144839590688	2
1	13684	534.398080335448	1
1	13692	534.785626776785	0
1	13700	534.955787991435	1
1	13708	535.300062407231	0
1	13712	535.369577847234	1
1	13716	535.401835632678	0
1	13734	536.107858176906	1
1	13738	536.255080834872	0
1	13752	536.772405088463	1
1	13762	537.453793577782	0
1	13769	538.013908008181	1
1	13773	538.146150357473	0
1	13809	539.867554245525	1
1	13838	541.144606375093	0
1	13842	541.612315496813	1
1	13854	541.956589912609	0
1	13855	542.031749278962	1
1	13870	542.643834383903	0
1	13882	543.243730650418	1
1	13886	543.348656506937	0
1	13900	544.054679051165	1
1	13905	544.212414202783	0
1	13912	544.468468906964	1
1	13926	545.048929287369	0
1	13932	545.206749236636	1
1	13939	545.31025169648	0
1	13953	545.871296148193	1
1	13967	546.437185103692	0
1	13978	547.112799067911	1
1	13981	547.141518410333	0
1	14017	548.966445305255	1
1	14028	549.439122214632	0
1	14046	550.711206556543	1
1	14061	551.130640338692	2
1	14086	552.342621710148	3
1	14096	553.153570110895	4
1	14102	553.3474353263	3
1	14109	553.567359966694	4
1	14119	553.672358664752	3
1	14137	554.305640296366	4
1	14142	554.365422558088	3
1	14151	554.649914712162	2
1	14158	554.970187207923	3
1	14176	556.211690127641	4
1	14187	556.62921527349	3
1	14197	557.176604975589	2
1	14202	557.636114472003	1
1	14210	558.065336364985	2
1	14233	558.893007988892	1
1	14241	559.135342480813	0
1	14260	559.810097616273	1
1	14272	560.229531398422	2
1	14289	561.156800704294	1
1	14294	561.241522975208	0
1	14300	561.441512769878	1
1	14317	562.252461170625	2
1	14323	562.666251026424	3
1	14329	562.883412502838	2
1	14346	563.404531356096	3
1	14357	564.069078267653	4
1	14371	564.413352683449	3
1	14373	564.585489891347	2
1	14383	565.132254516053	1
1	14384	565.310581187371	2
1	14399	565.881868520458	1
1	14409	566.631482524863	0
1	14416	567.164227424715	1
1	14427	567.508501840511	0
1	14459	568.908988676003	1
1	14463	569.017491525487	0
1	14474	569.328422458152	1
1	14503	570.540403829608	2
1	14515	571.129166551293	1
1	14518	571.351352230355	2
1	14525	571.765142086154	3
1	14533	572.20725192325	2
1	14545	572.492776480777	1
1	14547	572.503422415826	2
1	14552	572.532952123376	1
1	14561	573.167969327383	2
1	14567	573.378008564508	1
1	14581	574.409472247101	2
1	14603	575.135940003973	1
1	14614	575.373472771251	0
1	14627	576.263118484445	1
1	14653	577.187897949077	0
1	14670	578.007879735733	1
1	14681	578.427313517882	2
1	14690	578.625306595343	1
1	14706	579.639294889338	2
1	14723	580.450243290085	3
1	14738	580.864033145884	4
1	14742	580.966654913779	3
1	14756	581.602313475556	4
1	14761	581.623762612963	3
1	14772	581.963248852688	2
1	14781	582.266860387113	3
1	14784	582.373376617368	2
1	14791	583.082760878232	1
1	14794	583.122990621773	0
1	14800	583.508363306831	1
1	14832	585.134718823336	0
1	14839	585.362009544175	1
1	14843	585.371832634988	0
1	14869	587.106770795463	1
1	14872	587.278908003361	0
1	14888	587.526204577612	1
1	14894	588.100893671768	0
1	14911	588.738185949068	1
1	14919	589.119902657013	0
1	14925	589.549134349815	1
1	14935	589.962924205614	2
1	14956	590.701204535286	3
1	14974	591.346351332773	2
1	14979	591.365751446843	3
1	14983	591.393545582	2
1	14998	592.607254366561	3
1	15016	593.081539697595	2
1	15027	593.617586683443	1
1	15035	594.367200687848	0
1	15036	594.460900603905	1
1	15065	596.047714546027	0
1	15072	596.205661855193	1
1	15083	596.625095637342	2
1	15086	596.79723284524	1
1	15096	597.365656705468	0
1	15103	597.837077008798	1
1	15115	598.648025409545	2
1	15130	598.97640262675	1
1	15135	599.061815265344	2
1	15160	599.641276866128	1
1	15162	599.680848656933	0
1	15163	599.800095595016	1
1	15178	600.364112723088	0
1	15179	600.464642506573	1
1	15192	600.823842311312	0
1	15207	601.706145426291	1
1	15214	601.90506958153	0
1	15242	603.559791663635	1
1	15255	603.994535420286	0
1	15271	605.304552914923	1
1	15284	605.538990675968	0
1	15287	605.723986697072	1
1	15313	606.935968068528	2
1	15328	607.746916469275	3
1	15336	607.919053677173	2
1	15339	608.091190885071	1
1	15340	608.160706325074	2
1	15361	608.782003979441	1
1	15362	608.898986654746	2
1	15376	609.563533566303	3
1	15389	610.254139040624	2
1	15401	610.805036486021	3
1	15410	610.960240443138	2
1	15441	612.48048975435	1
1	15444	612.658682723365	2
1	15470	614.403443974653	3
1	15488	614.747718390449	2
1	15489	614.822877756802	3
1	15498	614.96928740528	2
1	15500	615.091992806245	1
1	15512	615.436267222041	0
1	15526	616.034859128258	1
1	15529	616.106006815593	0
1	15535	616.845807529005	1
1	15542	617.259597384804	2
1	15560	617.751618589344	1
1	15563	617.997877714476	2
1	15580	618.526986036706	1
1	15581	618.662424626033	2
1	15612	619.888177168804	1
1	15614	619.903927545751	2
1	15641	621.757573783095	3
1	15649	622.102918850833	2
1	15661	622.816865249527	1
1	15676	623.502335034383	2
1	15679	623.602146859643	1
1	15690	623.921768816532	2
1	15704	624.399584134592	1
1	15706	624.512244531664	0
1	15719	625.133750187988	1
1	15733	625.944698588735	2
1	15739	626.358488444534	3
1	15745	626.455886597894	2
1	15755	626.93126485896	1
1	15761	627.096768774206	2
1	15773	627.761315685763	3
1	15777	627.834998043063	2
1	15810	629.002818605481	3
1	15814	629.059504775709	2
1	15820	629.114732499248	1
1	15850	630.557489963704	0
1	15857	630.856464842825	1
1	15872	631.334374881756	0
1	15891	632.601226094113	1
1	15904	633.020659876262	2
1	15918	633.347128916908	1
1	15931	633.829880863904	0
1	15940	634.232641247718	1
1	15951	634.854882868825	0
1	15954	635.043589648465	1
1	15960	635.457379504264	2
1	15963	635.595970930123	1
1	15967	635.781818917322	0
1	15981	636.195659833936	1
1	15993	636.860206745493	2
1	16026	638.101709665211	3
1	16032	638.273846873109	2
1	16044	638.54502922856	1
1	16046	638.594426947743	0
1	16071	639.955355902555	1
1	16075	640.093654956553	0
1	16101	641.700117153843	1
1	16111	642.119550935992	2
1	16122	642.653338458766	1
1	16142	643.331532307448	2
1	16150	643.728639791581	1
1	16164	644.142480708195	2
1	16167	644.314617916093	1
1	16177	644.556270563994	2
1	16182	644.761479160441	1
1	16192	645.294550893666	2
1	16211	645.959097805223	3
1	16214	646.009141415786	2
1	16216	646.181278623684	1
1	16231	647.200600724941	2
1	16240	647.589795000603	1
1	16245	647.761932208501	0
1	16282	649.054246962285	1
1	16301	649.908420483355	0
1	16307	650.799008213573	1
1	16317	651.218441995722	2
1	16349	652.430423367178	3
1	16364	652.690474322528	2
1	16378	653.241371767925	3
1	16388	653.655161623724	4
1	16392	653.972302035776	3
1	16402	654.226566552453	2
1	16403	654.393441953396	3
1	16418	655.057988864953	4
1	16425	655.835549049058	3
1	16435	656.236094751178	2
1	16436	656.299491784671	3
1	16447	656.656106691667	2
1	16468	657.506000522657	1
1	16477	658.153138022015	2
1	16508	659.622281540099	1
1	16510	659.897899273303	2
1	16523	660.317333055452	3
1	16534	660.636463566803	2
1	16537	660.763680181982	1
1	16551	661.529314426908	2
1	16564	662.047257027758	1
1	16568	662.12077105184	0
1	16569	662.340262827655	1
1	16579	662.754052683454	2
1	16598	663.331689093108	1
1	16603	663.492333013126	2
1	16612	664.081303097513	1
1	16616	664.156879924683	2
1	16622	664.602927565926	1
1	16634	664.789820889987	0
1	16645	665.398382844401	1
1	16662	666.330145110728	0
1	16681	667.252029081745	1
1	16693	667.569102414358	0
1	16715	668.996790333033	1
1	16731	669.416224115182	2
1	16738	669.81885104359	1
1	16748	670.628205486638	2
1	16767	671.144617110332	1
1	16774	671.439153887385	2
1	16780	671.577443141563	1
1	16786	671.852943743184	2
1	16819	672.591224072856	3
1	16829	673.255770984413	4
1	16839	673.826285154778	3
1	16847	674.346436474394	2
1	16851	674.497273904131	3
1	16867	675.456245647392	2
1	16869	675.515923288617	1
1	16891	676.266216145808	0
1	16892	676.350920141475	1
1	16914	677.574355176803	0
1	16917	678.095681392763	1
1	16936	678.515115174912	2
1	16962	679.727096546368	3
1	16966	679.823197190018	2
1	16983	680.538044947115	3
1	16996	680.951834802914	4
1	17001	680.981364510464	3
1	17004	681.1378146206	2
1	17014	681.521868245946	1
1	17017	681.690115132586	2
1	17029	682.072039203233	1
1	17036	682.244176411131	0
1	17037	682.354662044143	1
1	17041	682.416313619029	0
1	17066	683.596164963861	1
1	17071	683.768302171759	0
1	17101	685.449811201205	1
1	17113	685.69651287512	0
1	17141	687.194572452493	1
1	17156	687.614006234642	2
1	17166	687.929192766806	1
1	17168	688.068951238473	0
1	17185	688.825987606098	1
1	17195	689.568179247283	0
1	17200	689.636936006845	1
1	17205	690.050725862644	2
1	17215	690.192985482208	1
1	17217	690.317793251688	0
1	17232	690.789006192316	1
1	17235	690.834204875382	0
1	17250	691.453553103873	1
1	17272	692.695056023591	2
1	17281	693.316249269308	1
1	17298	694.065863273713	0
1	17301	694.548702260935	1
1	17311	694.720570913012	0
1	17343	696.293463512223	1
1	17348	696.390211062962	0
1	17360	696.712897294372	1
1	17390	697.924878665828	2
1	17403	698.735827066575	3
1	17411	699.149616922374	4
1	17436	699.841957969088	3
1	17437	699.887897252046	4
1	17444	699.890873249506	3
1	17454	700.552444163603	4
1	17462	700.896718579399	3
1	17475	701.511949059218	2
1	17482	701.793947083321	3
1	17515	703.647593320665	4
1	17521	703.810845330978	3
1	17530	704.337031937221	2
1	17541	704.557106333744	1
1	17557	705.310073339788	0
1	17558	705.392354571953	1
1	17566	705.784358640162	0
1	17569	705.811788354102	1
1	17588	707.023769725558	2
1	17597	707.303206785653	1
1	17607	707.834718126305	2
1	17614	708.248507982104	3
1	17621	708.308529357408	2
1	17639	708.986788311776	3
1	17645	709.058143361813	2
1	17648	709.2722546984	1
1	17652	709.651335223333	2
1	17666	710.152031782014	1
1	17668	710.231894866376	0
1	17679	710.892838143051	1
1	17717	712.194255654512	0
1	17729	712.746484380395	1
1	17736	712.830912636228	0
1	17768	714.491245631683	1
1	17780	714.910679413832	2
1	17783	715.08281662173	1
1	17789	715.250027659912	0
1	17808	716.122660785288	1
1	17821	716.933609186035	2
1	17834	717.347399041834	3
1	17851	717.91560383727	2
1	17852	718.085679371506	3
1	17855	718.178715740635	2
1	17861	718.607981583746	1
1	17871	718.702551427712	0
1	17872	718.750226283063	1
1	17892	719.622290782434	0
1	17897	719.991729202781	1
1	17905	720.230673685739	0
1	17936	721.845375440125	1
1	17941	721.886083497836	0
1	17970	723.590136691413	1
1	17983	723.981226435824	0
1	17984	724.009570473562	1
1	17990	724.153363643722	0
1	18008	725.221551845018	1
1	18019	726.032500245765	2
1	18023	726.125536614894	1
1	18039	726.41366892864	0
1	18040	726.446290101564	1
1	18054	727.184570431236	2
1	18058	727.186174942999	1
1	18073	727.798493471938	0
1	18074	727.849117342793	1
1	18084	728.132848157024	0
1	18107	729.090620262511	1
1	18115	729.800253782824	0
1	18140	730.944266499855	1
1	18149	731.14366940843	0
1	18173	732.689027751143	1
1	18177	732.748162722743	0
1	18198	733.108461533292	1
1	18215	734.320442904748	2
1	18234	735.131391305495	3
1	18243	735.545181161294	4
1	18261	735.932253265414	3
1	18266	736.104390473312	2
1	18273	736.283461490966	3
1	18285	736.948008402523	4
1	18299	737.563144886336	3
1	18301	737.63369364364	2
1	18310	738.189511322241	3
1	18344	740.043157559585	4
1	18371	741.787918810873	5
1	18378	741.86582346564	4
1	18389	742.019178363412	3
1	18395	742.207352593022	4
1	18398	742.210097881436	3
1	18407	742.278293250992	2
1	18416	742.790773560038	1
1	18423	743.419333964478	2
1	18430	743.631159280577	1
1	18440	744.071136308516	0
1	18445	744.230282365225	1
1	18454	744.644072221024	2
1	18471	745.085868776891	1
1	18475	745.382352550696	2
1	18487	746.046899462253	3
1	18495	746.2301231956	2
1	18515	746.993441615648	1
1	18517	747.037311156948	0
1	18524	747.288402381971	1
1	18553	749.142048619315	2
1	18577	750.286913604088	1
1	18589	750.886809870603	2
1	18602	751.306243652752	3
1	18622	751.708589980304	2
1	18624	751.846476919434	1
1	18629	752.017957182775	0
1	18636	752.518225024208	1
1	18644	752.707892825201	0
1	18652	753.329173424955	1
1	18665	753.742963280754	2
1	18682	754.481243610426	3
1	18701	755.145790521983	4
1	18712	755.534211634923	3
1	18725	756.283825639328	2
1	18726	756.387293441701	3
1	18730	756.42373834496	2
1	18743	757.033439643733	1
1	18754	757.342150727871	0
1	18770	758.240939679045	1
1	18799	759.964778057034	0
1	18801	759.985700930333	1
1	18815	760.405134712482	2
1	18821	760.781509665758	1
1	18837	761.200662208635	0
1	18850	761.617116083938	1
1	18857	762.280737674568	0
1	18860	762.428064484685	1
1	18867	762.634352375072	0
1	18870	762.841854340484	1
1	18877	762.930952905466	0
1	18888	763.580134670156	1
1	18897	764.244681581713	2
1	18906	764.529579687783	1
1	18916	764.898145090474	0
1	18932	765.486184501431	1
1	18938	765.635329896833	0
1	18969	767.339830738775	1
1	18987	768.277649709808	0
1	19000	769.084591990063	1
1	19004	769.099042038524	0
1	19016	769.504025772212	1
1	19040	770.569183438928	0
1	19041	770.716007143668	1
1	19045	770.877773779725	0
1	19056	771.526955544415	1
1	19060	771.68952323668	0
1	19067	771.940745400214	1
1	19085	772.679025729886	2
1	19090	772.850481640052	1
1	19093	773.343572641443	2
1	19125	774.585075561161	3
1	19128	774.757212769059	2
1	19137	775.024175749453	1
1	19147	775.284331803584	0
1	19175	776.438721798505	1
1	19180	776.625810845789	0
1	19204	778.183483049793	1
1	19217	778.480901382886	0
1	19224	778.602916831942	1
1	19230	778.824594653984	0
1	19249	779.814898203398	1
1	19252	779.882099852733	0
1	19272	780.625846604145	1
1	19286	781.021087784693	0
1	19287	781.039636459944	1
1	19305	781.604641122087	0
1	19311	781.777916789616	1
1	19321	782.442463701173	2
1	19324	782.520315793503	1
1	19334	783.269929797908	0
1	19335	783.683966620891	1
1	19338	783.805240679811	0
1	19394	785.537612858235	1
1	19397	785.690909019021	0
1	19418	787.282374109523	1
1	19439	787.701807891672	2
1	19446	787.970922941115	1
1	19456	788.517227828743	0
1	19462	788.913789263128	1
1	19484	789.724737663875	2
1	19500	790.138527519674	3
1	19511	790.703075019918	2
1	19514	790.876807849346	3
1	19526	791.541354760903	4
1	19535	791.75206155407	3
1	19541	792.063657675298	2
1	19546	792.265297850768	1
1	19555	792.782857680621	2
1	19561	793.014911855173	1
1	19582	794.144925262208	0
1	19599	794.636503917965	1
1	19607	794.718236402502	0
1	19627	796.381265169253	1
1	19645	796.800698951402	2
1	19649	796.935119085096	1
1	19664	797.646924483225	0
1	19666	798.012680322858	1
1	19681	798.823628723605	2
1	19689	798.855035821504	1
1	19692	798.860073626864	0
1	19703	799.237418579404	1
1	19718	799.698882428329	0
1	19723	799.975698909076	1
1	19739	800.640245820633	2
1	19749	801.118828536906	1
1	19757	801.881748740351	2
1	19763	802.010279908033	1
1	19767	802.182417115931	0
1	19804	803.735394977695	1
1	19812	804.259121921248	0
1	19824	805.480156228983	1
1	19836	805.64641396771	0
1	19846	805.899590011132	1
1	19849	805.996567852677	0
1	19865	807.111571382588	1
1	19868	807.257577938868	0
1	19885	807.922519783335	1
1	19892	808.007191943273	0
1	19898	808.336309639134	1
1	19913	808.756805947678	0
1	19914	809.074589968806	1
1	19928	809.506419952083	0
1	19937	809.739136880363	1
1	19951	810.173999398514	0
1	19962	810.980639800081	1
1	19996	812.834286037425	2
1	20000	812.875855843726	1
1	20011	813.254489974108	0
1	20034	814.579047288713	1
1	20043	814.753717982918	0
1	20052	814.998481070862	1
1	20066	815.503331987323	0
1	20076	816.210462442318	1
1	20080	816.252945991728	0
1	20098	817.021410843065	1
1	20110	817.435200698864	2
1	20119	817.589249556725	1
1	20123	817.720667085488	0
1	20138	818.173481028536	1
1	20148	818.558699025279	0
1	20150	818.838027940093	1
1	20179	820.079530859811	2
1	20193	821.098994560246	1
1	20206	821.500244022563	0
1	20209	821.933177097155	1
1	20223	822.277451512951	0
1	20244	823.677938348443	1
1	20250	823.749086035778	0
1	20264	824.097372130592	1
1	20272	824.498700040183	0
1	20292	825.309353502048	1
1	20313	826.120301902795	2
1	20320	826.505519899538	1
1	20322	826.534091758594	2
1	20349	827.272372088266	3
1	20355	827.497156057803	2
1	20360	827.809217714023	1
1	20361	827.936918999823	2
1	20371	828.28434112173	1
1	20383	828.996384066613	0
1	20384	829.178421919541	1
1	20390	829.434207980261	0
1	20417	831.032068156885	1
1	20441	831.866112179456	0
1	20462	832.776829408173	1
1	20466	832.802932557019	0
1	20475	833.196263190322	1
1	20481	833.494068093043	0
1	20503	834.408244561778	1
1	20522	835.219192962525	2
1	20532	835.632982818324	3
1	20547	836.371263147996	4
1	20559	836.581260544112	3
1	20560	837.035810059553	4
1	20574	837.380084475349	3
1	20591	838.277312979271	4
1	20608	838.793724602965	3
1	20619	839.432986799624	2
1	20622	839.490980128283	1
1	20635	840.130959216615	2
1	20640	840.240594132688	1
1	20642	840.412731340586	0
1	20670	841.875720467903	1
1	20683	842.295154250052	2
1	20696	842.639428665848	1
1	20707	843.507135621508	2
1	20718	843.988664154713	1
1	20729	844.318084022255	2
1	20734	844.731873878054	3
1	20749	845.293678406904	2
1	20758	845.470154207726	3
1	20766	845.869611834719	2
1	20772	846.011557273424	1
1	20778	846.134701119283	2
1	20782	846.237506167928	1
1	20798	847.376204039001	2
1	20801	847.379807673883	1
1	20810	847.736734176738	0
1	20848	849.229850276345	1
1	20878	850.72670563808	0
1	20884	850.974611527633	1
1	20897	851.394045309782	2
1	20916	852.234418203168	1
1	20917	852.606026681238	2
1	20928	852.984032207573	1
1	20939	853.416975081985	2
1	20946	853.830764937784	3
1	20962	854.564249512633	2
1	20963	854.569045267456	3
1	20970	854.741182475354	2
1	20984	855.233592179013	3
1	20988	855.326628548142	2
1	20997	855.449853706554	1
1	21009	856.475095098731	2
1	21018	856.819369514527	1
1	21051	858.292803396574	0
1	21053	858.328741336075	1
1	21075	859.730558247218	0
1	21086	860.073502587363	1
1	21090	860.157002367392	0
1	21104	860.492936369512	1
1	21123	861.704917740968	2
1	21138	862.515866141715	3
1	21149	862.865637363228	2
1	21150	862.929655997514	3
1	21169	863.478628269243	2
1	21172	863.667936327186	3
1	21181	864.228242273648	2
1	21182	864.332483238743	3
1	21187	864.505024568162	2
1	21195	864.723186686715	1
1	21204	864.895323894613	0
1	21214	865.573986158461	1
1	21243	866.768817283564	0
1	21249	867.427632395805	1
1	21260	867.976312295673	0
1	21286	869.172393647093	1
1	21300	869.436580399714	0
1	21305	869.591827429242	1
1	21329	870.803808800698	2
1	21346	871.614757201445	3
1	21348	872.028547057244	4
1	21363	872.766827386916	5
1	21377	873.431374298473	6
1	21383	873.56019542977	5
1	21388	873.973224330913	4
1	21395	874.186445145092	3
1	21399	874.30244746136	2
1	21405	874.672877218191	3
1	21409	874.722838335318	2
1	21430	875.644589547621	1
1	21433	875.823988145172	0
1	21445	876.526523455535	1
1	21454	877.115133225815	0
1	21476	878.271284706823	1
1	21493	878.690718488972	2
1	21503	878.787696330517	1
1	21508	879.017595826016	0
1	21524	879.902699860428	1
1	21534	880.336173657361	0
1	21541	880.713648261175	1
1	21550	881.127438116974	2
1	21569	881.865718446646	3
1	21577	882.133266019351	2
1	21582	882.218978379368	1
1	21588	882.615366291378	0
1	21589	882.6590864895	1
1	21616	883.732744190672	0
1	21619	883.771768277921	1
1	21624	883.943905485819	0
1	21659	885.625414515265	1
1	21676	886.467629410714	0
1	21698	887.370175766553	1
1	21710	887.789609548702	2
1	21724	888.447892555328	1
1	21731	889.001590920158	2
1	21753	889.812539320905	3
1	21760	890.226329176704	4
1	21768	890.464732427823	3
1	21777	890.964609506376	4
1	21787	891.75797754923	5
1	21817	892.870659337651	6
1	21828	893.163040919984	5
1	21835	893.489124215982	4
1	21845	893.934329868388	3
1	21850	894.212802449848	2
1	21854	894.724305574995	3
1	21885	896.469066826283	4
1	21900	896.888500608432	5
1	21925	897.87818928464	4
1	21929	897.960872471873	3
1	21931	898.026907767869	2
1	21933	898.100481979888	3
1	21950	898.911430380635	4
1	21956	899.325220236434	5
1	21959	899.460100480683	4
1	21970	899.88428179389	3
1	21975	900.056419001788	2
1	21976	900.063500566106	3
1	21983	900.400693417584	2
1	21992	900.85686860896	3
1	21995	900.955595848592	2
1	21998	900.959328489493	1
1	22007	901.521167025244	0
1	22017	902.261931979714	1
1	22048	902.989500729996	0
1	22060	903.823196634725	1
1	22063	903.957784507113	0
1	22093	905.567957886013	1
1	22105	905.987391668162	2
1	22113	906.59965162903	1
1	22128	907.199373039618	2
1	22133	907.308486013952	1
1	22141	907.5170861608	0
1	22153	908.010321440365	1
1	22156	908.026250206818	0
1	22160	908.424111296164	1
1	22182	909.162391625836	2
1	22189	909.780878876202	1
1	22195	909.95575966869	2
1	22211	910.954374667955	1
1	22218	911.360823039444	2
1	22223	911.593366472026	1
1	22230	911.765503679924	0
1	22261	912.922087694455	1
1	22278	913.920549516387	0
1	22288	914.666848945743	1
1	22302	915.048338290275	0
1	22303	915.086282727892	1
1	22326	916.123745785491	0
1	22327	916.298264099348	1
1	22342	916.572257022408	0
1	22359	917.109212500095	1
1	22372	917.523002355894	2
1	22384	918.25328679745	1
1	22385	918.261282685566	2
1	22401	918.901195542214	1
1	22407	919.05465072842	2
1	22430	920.459714099174	3
1	22452	921.198906608428	2
1	22457	921.45393110792	1
1	22470	921.867370390646	0
1	22474	922.020978754185	1
1	22501	923.363635168614	0
1	22502	923.765740005473	1
1	22521	924.185173787622	2
1	22534	924.796058471369	1
1	22537	924.946976630453	0
1	22538	925.397155159078	1
1	22545	925.627427884016	0
1	22562	926.208103559825	1
1	22569	926.446204639263	0
1	22570	926.621893415624	1
1	22594	927.351720695281	0
1	22595	927.360173745296	1
1	22609	927.945432648073	0
1	22612	928.15354178815	1
1	22620	928.695046652478	0
1	22628	929.558605158904	1
1	22653	930.21239478666	0
1	22679	931.119869813915	1
1	22690	931.693502670098	0
1	22709	932.864631065203	1
1	22723	933.284064847352	2
1	22739	934.496046218808	3
1	22755	934.840320634604	2
1	22765	935.306994619555	3
1	22777	935.720784475354	4
1	22791	936.191186696528	3
1	22794	936.459064805026	4
1	22807	937.25243284788	5
1	22823	937.761012139164	4
1	22834	938.440028709743	3
1	22837	938.657496218634	4
1	22862	939.327148269467	3
1	22869	939.939256718553	2
1	22873	940.218760873645	3
1	22886	940.688870722958	2
1	22906	941.963522124933	3
1	22912	942.042587397721	2
1	22920	942.382955907082	3
1	22926	942.741658164991	2
1	22944	943.594937278538	3
1	22947	943.687326740578	2
1	22954	944.405885679285	3
1	22964	944.819675535084	4
1	22975	945.0296729312	3
1	22977	945.186554749388	2
1	22985	945.376451283045	1
1	22991	945.557955864756	2
1	22994	945.707833013423	1
1	23017	946.35132390761	2
1	23025	946.685782758198	1
1	23034	947.435396762603	0
1	23035	947.756387278364	1
1	23041	947.928524486262	0
1	23070	949.317651933375	1
1	23102	950.68847903925	0
1	23111	951.062413184663	1
1	23115	951.183466784628	0
1	23127	951.481846966812	1
1	23145	952.682694793438	0
1	23146	952.693828338268	1
1	23151	952.79294046884	0
1	23163	953.504776739015	1
1	23169	953.654653887682	0
1	23173	953.918566594814	1
1	23190	954.181922802248	0
1	23201	954.656846924486	1
1	23222	955.45021496734	2
1	23228	955.681150811058	1
1	23243	956.583341968405	0
1	23245	956.855278338094	1
1	23258	957.268262220149	0
1	23274	958.416542993105	1
1	23280	958.635299913509	0
1	23315	960.161304244393	1
1	23318	960.178834837488	0
1	23328	960.580738026542	1
1	23350	961.601474761941	0
1	23355	961.792719397998	1
1	23371	962.427676850703	0
1	23372	962.603667798745	1
1	23380	962.947942214541	0
1	23384	963.017457654544	1
1	23388	963.177290855108	0
1	23407	963.755737984216	1
1	23413	963.890266389824	0
1	23428	964.54910602707	1
1	23433	964.795031027414	0
1	23448	965.954169397824	1
1	23458	966.29844381362	0
1	23481	967.515434052835	1
1	23486	967.674974881538	0
1	23515	969.260195304123	1
1	23524	969.679629086272	2
1	23542	970.673430899158	1
1	23546	970.891610457728	2
1	23564	971.702558858475	3
1	23572	972.116348714274	4
1	23576	972.149662626781	3
1	23580	972.476983716923	2
1	23588	972.671752976538	1
1	23592	972.854629043946	2
1	23616	973.6479970868	3
1	23619	973.671886916778	2
1	23628	974.421500921183	1
1	23637	975.053060457554	2
1	23660	975.704564275815	1
1	23671	976.614325112565	2
1	23677	976.670342934398	1
1	23690	977.495116510459	0
1	23712	978.359086363853	1
1	23727	978.778520146002	2
1	23730	978.919184947613	1
1	23746	979.958453053664	0
1	23747	979.990501517458	1
1	23758	980.423804591182	0
1	23768	980.801449918205	1
1	23778	981.215239774004	2
1	23782	981.258385210913	1
1	23794	981.917640965233	0
1	23795	981.953520103676	1
1	23813	982.55802951169	0
1	23820	982.74688814653	1
1	23824	982.750859848448	0
1	23846	984.151951517284	1
1	23852	984.486038484468	0
1	23874	985.713216172295	1
1	23899	987.164938996068	0
1	23904	987.457977423583	1
1	23920	987.877411205732	2
1	23927	988.370625465441	1
1	23942	989.089392577188	2
1	23950	989.900340977935	3
1	23962	990.244615393731	2
1	23963	990.314130833734	3
1	23969	990.416752601629	2
1	23986	991.052411163406	3
1	23992	991.277416630674	2
1	24009	991.84577920626	3
1	24017	992.18115657776	2
1	24027	992.584374234801	1
1	24035	993.250842577014	2
1	24042	993.388758258977	1
1	24070	994.812107232025	2
1	24081	995.410693044523	1
1	24092	995.967648409647	0
1	24105	996.556868483313	1
1	24118	996.896304942416	0
1	24121	996.976302265462	1
1	24127	997.254195469129	0
1	24146	998.188283636918	1
1	24154	998.369404284804	0
1	24166	998.999232037665	1
1	24174	999.369161519689	0
1	24175	999.413021893464	1
[...]
11	21727	888.793367211115	0
11	21738	889.348743950165	1
11	21769	890.578607163131	2
11	21791	891.791823228735	1
11	21795	892.27998036969	0
11	21851	894.596041981	1
11	21860	894.884361160493	0
11	21910	897.43585070907	1
11	21927	897.947516707304	0
11	21945	898.665713922036	1
11	22000	901.034473026913	0
11	22035	902.683148739905	1
11	22054	903.03603329481	0
11	22088	905.522957467975	1
11	22109	906.03448931243	0
11	22114	906.752820680941	1
11	22119	906.784103316835	0
11	22207	910.77025549881	1
11	22234	911.8433897831	0
11	22273	913.61006422688	1
11	22282	914.280243360885	0
11	22290	914.839927439846	1
11	22297	914.904582243881	0
11	22397	918.857362257715	1
11	22421	919.52754139172	0
11	22460	921.697170985785	1
11	22486	922.52599740934	0
11	22491	922.927034198751	1
11	22495	923.044060518949	0
11	22579	926.94446901662	1
11	22633	929.78427774469	2
11	22645	930.02213745339	1
11	22677	931.014140957656	2
11	22719	933.073068878039	1
11	22727	933.423209421964	0
11	22756	935.031575775525	1
11	22789	936.105880177316	0
11	22825	937.871384503595	1
11	22829	937.96118822798	0
11	22850	939.101247716561	1
11	22915	942.17150277587	0
11	22936	943.11868253443	1
11	23003	945.9584912625	2
11	23020	946.509642660936	1
11	23026	947.188354475466	2
11	23077	949.397218997088	1
11	23089	950.199977707247	0
11	23119	951.205789293335	1
11	23133	951.760943581135	0
11	23183	954.045598021405	1
11	23219	955.275461234371	2
11	23273	958.161667165424	1
11	23297	959.29289605224	2
11	23363	962.13270478031	3
11	23391	963.362567993276	4
11	23410	963.776047999568	3
11	23444	965.688435972689	2
11	23464	966.433993170086	1
11	23475	967.380002811145	2
11	23511	969.00206568245	1
11	23530	969.753232525139	0
11	23535	970.219811539215	1
11	23559	971.449674752181	2
11	23571	972.00052170007	1
11	23586	972.530540656791	0
11	23646	975.46710957005	1
11	23663	975.748591722095	0
11	23709	978.30691829812	1
11	23733	979.49666174412	0
11	23737	979.536781511086	1
11	23743	979.82490694192	0
11	23839	983.554216328955	1
11	23843	983.99434577055	0
11	23883	986.394025057025	1
11	23911	987.623888269991	2
11	23931	988.49202979698	1
11	23980	990.740871810195	0
11	23998	991.64132308786	1
11	24004	991.670255504526	0
11	24060	994.48113181593	1
11	24065	994.48894183222	0
11	24082	995.710995028896	1
11	24130	997.333892256366	0
11	24180	999.728429846765	1
11	24185	999.736239863055	0
11	24251	1002.568238574835	1
11	24262	1002.82772876141	0
11	24273	1003.798101787801	1
11	24300	1004.98353789389	0
11	24369	1007.81553660567	1
11	24433	1010.65534533374	2
11	24466	1011.885208546706	3
11	24523	1014.842877570812	2
11	24553	1015.902643364575	3
11	24593	1017.726975968775	2
11	24600	1017.991785257795	1
11	24618	1018.742452092645	2
11	24630	1019.343479748402	1
11	24637	1019.972315305611	2
11	24642	1019.97581798199	1
11	24651	1020.279345545591	0
11	24718	1023.98975012348	1
11	24724	1024.057407856349	0
11	24790	1026.82955885155	1
11	24804	1027.280866920508	0
11	24818	1028.059422064516	1
11	24822	1028.097972405625	0
11	24898	1032.076856882385	1
11	24966	1034.916665610455	2
11	24973	1034.96809807009	1
11	24992	1035.809182722425	0
11	25003	1036.146528823421	1
11	25040	1037.96655408771	0
11	25088	1040.16396364129	1
11	25118	1041.510905708239	0
11	25140	1043.00377236936	1
11	25159	1043.710736333284	0
11	25178	1044.233635582326	1
11	25204	1045.46269413176	0
11	25248	1048.251070400195	1
11	25253	1048.319898250565	0
11	25319	1051.090879128265	1
11	25345	1052.209220171405	0
11	25346	1052.320742341231	1
11	25377	1053.708448180215	0
11	25434	1056.3381771591	1
11	25490	1058.615340856927	0
11	25503	1059.17798588717	1
11	25524	1060.407849100136	2
11	25597	1063.115943034517	1
11	25605	1063.48395474695	0
11	25625	1064.425283918005	1
11	25640	1064.95265824629	0
11	25685	1067.265092646075	1
11	25717	1068.494955859041	2
11	25725	1068.700728268315	1
11	25808	1072.51239067691	2
11	25873	1075.35219940498	3
11	25902	1076.582062617946	4
11	25986	1080.599497435815	5
11	26032	1082.052267688573	4
11	26058	1083.439306163885	5
11	26078	1084.44262236082	4
11	26079	1084.669169376851	5
11	26095	1085.192236365225	4
11	26134	1087.44107837844	3
11	26180	1088.68660419472	4
11	26191	1088.94030638725	3
11	26223	1090.779256440443	2
11	26231	1090.939265266869	1
11	26250	1091.52641292279	2
11	26266	1092.316129726261	1
11	26273	1092.756276135756	2
11	26310	1094.037861651577	1
11	26322	1094.93721842249	0
11	26368	1096.773710953625	1
11	26419	1099.43490244892	0
11	26422	1099.613519681695	1
11	26448	1100.202429600924	0
11	26461	1100.843382894661	1
11	26504	1102.910501637551	0
11	26541	1104.86081771253	1
11	26604	1107.7006264406	2
11	26634	1108.930489653566	3
11	26720	1112.178340523805	2
11	26737	1112.947924471435	3
11	26751	1113.746677591068	2
11	26771	1114.825793492738	1
11	26796	1115.787733199505	2
11	26815	1117.017596412471	3
11	26819	1117.202743238538	2
11	26825	1117.42563855464	1
11	26846	1118.074558133936	0
11	26904	1121.03503123034	1
11	26909	1121.107369433213	0
11	26965	1123.87483995841	1
11	27004	1125.104703171376	2
11	27013	1125.654108847301	1
11	27046	1127.170620611905	0
11	27089	1129.122137989245	1
11	27124	1130.91869063393	0
11	27145	1131.961946717315	1
11	27154	1132.334778807184	0
11	27169	1133.191809930281	1
11	27237	1136.088593012376	0
11	27266	1137.20924474815	1
11	27306	1138.865901144028	0
11	27329	1140.04905347622	1
11	27342	1140.663672691195	0
11	27350	1141.278916689186	1
11	27406	1143.662128708815	0
11	27443	1145.296351507055	1
11	27455	1145.91097072203	0
11	27500	1148.136160235125	1
11	27528	1149.366023448091	2
11	27552	1150.660869606747	1
11	27555	1151.158268752865	0
11	27607	1153.38345826596	1
11	27616	1153.597578326822	0
11	27675	1156.22326699403	1
11	27705	1157.319955761223	0
11	27708	1157.453130206996	1
11	27729	1158.598256778853	0
11	27783	1161.470565024865	1
11	27856	1164.310373752935	2
11	27878	1165.540236965901	3
11	27895	1166.273633534406	2
11	27916	1166.90016284537	1
11	27946	1169.149004858585	0
11	27953	1169.55767178377	1
11	27983	1170.648232867395	0
11	28030	1172.39748051184	1
11	28059	1173.627343724806	2
11	28075	1174.39630288942	1
11	28144	1177.39475890704	0
11	28145	1177.644778542675	1
11	28150	1178.144372911445	0
11	28206	1180.484587270745	1
11	28242	1181.714450483711	2
11	28249	1181.763595418753	1
11	28289	1184.141284946685	0
11	28322	1185.73188530158	1
11	28367	1187.829218017307	0
11	28382	1188.57169402965	1
11	28411	1189.801557242616	2
11	28424	1190.138196981925	1
11	28468	1192.085413421185	0
11	28495	1193.818992060485	1
11	28503	1193.894840615861	0
11	28545	1196.658800788555	1
11	28557	1196.927651915138	0
11	28581	1197.888664001521	1
11	28633	1199.960463214415	0
11	28672	1201.90609881939	1
11	28691	1202.88163505681	0
11	28720	1204.74590754746	1
11	28751	1205.975770760426	2
11	28774	1207.138951035715	1
11	28842	1209.993205578295	2
11	28854	1210.37777510086	1
11	28897	1212.833014306365	2
11	28921	1213.37623111848	1
11	28931	1214.062877519331	2
11	29001	1217.656335059035	1
11	29010	1217.87391514491	0
11	29016	1218.0803123372	1
11	29032	1218.623529149315	0
11	29074	1220.92012106527	1
11	29086	1221.621985166935	0
11	29087	1222.149984278236	1
11	29129	1223.633519584606	0
11	29176	1226.167419096105	1
11	29212	1227.618897202175	0
11	29245	1229.007227824175	1
11	29274	1230.237091037141	2
11	29355	1234.109744167145	1
11	29356	1234.25452585501	2
11	29379	1235.165320373481	1
11	29384	1235.414433673158	0
11	29423	1237.09433458308	1
11	29437	1237.38869069386	0
11	29451	1238.324197796046	1
11	29454	1238.555640956276	0
11	29515	1242.341632613915	1
11	29522	1242.45968665861	0
11	29589	1245.181441341985	1
11	29624	1246.411304554951	2
11	29653	1247.85847532111	1
11	29700	1250.42873937282	2
11	29719	1251.214179315833	1
11	29770	1253.26854810089	2
11	29783	1253.818560106636	1
11	29800	1254.498411313856	2
11	29833	1255.714781493423	1
11	29852	1256.85384337397	0
11	29886	1258.515846131725	1
11	29898	1259.102685387185	0
11	29952	1261.355654859795	1
11	29964	1262.101141404805	0
11	29969	1262.585518072761	1
11	30045	1265.84921142683	0
11	30058	1266.60295289063	1
11	30072	1267.34843943564	0
11	30113	1269.4427616187	1
11	30156	1270.672624831666	2
11	30193	1272.595737466475	1
11	30196	1272.747934397063	0
11	30228	1274.690059649535	1
11	30232	1274.783611068552	0
11	30286	1277.529868377605	1
11	30311	1278.759731590571	2
11	30365	1280.575046516748	1
11	30369	1280.84149151493	0
11	30413	1282.77716640844	1
11	30432	1283.83994753255	0
11	30478	1285.61697513651	1
11	30485	1286.088789545765	0
11	30495	1286.846838349476	1
11	30505	1287.588017554575	0
11	30586	1290.864273167345	1
11	30601	1291.3360875766	0
11	30649	1293.704081895415	1
11	30672	1294.933945108381	2
11	30682	1295.084157598625	1
11	30714	1297.010424791279	0
11	30760	1298.95137992625	1
11	30777	1299.581841625055	0
11	30815	1301.79118865432	1
11	30841	1303.021051867286	2
11	30880	1304.145685424929	1
11	30935	1307.038486685155	2
11	30945	1307.424631951644	1
11	31005	1309.878295413225	2
11	31032	1311.108158626191	3
11	31036	1311.178446156836	2
11	31051	1312.174481287664	1
11	31116	1315.12559344406	2
11	31124	1315.32373571756	1
11	31175	1317.96540217213	2
11	31214	1319.195265385096	3
11	31225	1319.82141974399	2
11	31249	1321.272915185495	1
11	31287	1322.81987576161	0
11	31296	1323.212700202965	1
11	31313	1324.255888141909	0
11	31354	1326.052508931035	1
11	31388	1327.282372144001	2
11	31392	1327.31056701189	1
11	31432	1328.81678779685	0
11	31476	1331.29980696187	1
11	31515	1333.262428167603	0
11	31536	1334.13961568994	1
11	31542	1334.50521540843	0
11	31561	1335.369478902906	1
11	31625	1337.81215584971	0
11	31643	1339.386913720775	1
11	31658	1340.219232260157	0
11	31696	1342.226722448845	1
11	31704	1342.442602580536	0
11	31734	1343.456585661811	1
11	31784	1345.535405579711	0
11	31810	1347.47402047968	1
11	31833	1348.30675191138	0
11	31870	1350.31382920775	1
11	31886	1350.919780175207	0
11	31903	1351.543692420716	1
11	31919	1352.014200722876	0
11	31983	1355.561127238585	1
11	32042	1358.400935966655	2
11	32049	1358.80134797305	1
11	32062	1359.550961977455	0
11	32065	1359.630799179621	1
11	32081	1360.30057598186	0
11	32157	1363.64823399749	1
11	32204	1366.133114831335	0
11	32213	1366.48804272556	1
11	32217	1366.510710679781	0
11	32239	1367.717905938526	1
11	32297	1370.045558039125	0
11	32330	1371.735340756395	1
11	32344	1372.29440005234	0
11	32395	1374.575149484465	1
11	32410	1375.29285606996	0
11	32419	1375.805012697431	1
11	32424	1375.863518572481	0
11	32498	1379.8224475153	1
11	32505	1380.25463360281	0
11	32546	1382.66225624337	1
11	32555	1382.78899611401	0
11	32579	1383.892119456336	1
11	32586	1384.28822412282	0
11	32646	1387.909554274205	1
11	32691	1389.535522153655	0
11	32715	1390.749363002275	1
11	32729	1391.034750162465	0
11	32753	1391.979226215241	1
11	32757	1392.396592803004	0
11	32830	1395.99666103311	1
11	32873	1397.78127620211	0
11	32893	1398.83646976118	1
11	32913	1400.066332974146	2
11	32922	1400.256231058211	1
11	32933	1400.77973221973	0
11	32998	1404.083767792015	1
11	33011	1404.527802241755	0
11	33059	1406.923576520085	1
11	33078	1408.153439733051	2
11	33098	1409.010723715434	1
11	33113	1409.77510027259	0
11	33165	1412.17087455092	1
11	33171	1412.201228775768	0
11	33218	1415.01068327899	1
11	33232	1415.290065463082	0
11	33253	1416.240546491956	1
11	33284	1417.765216372657	0
11	33328	1420.257981309825	1
11	33377	1421.76892434307	0
11	33392	1423.097790037895	1
11	33411	1424.017766356285	0
11	33416	1424.327653250861	1
11	33421	1424.388499360913	0
11	33504	1428.34508806873	1
11	33511	1428.515450382715	0
11	33566	1431.1848967968	1
11	33571	1431.513906400335	0
11	33582	1432.414760009766	1
11	33596	1433.013134409145	0
11	33673	1436.432194827635	1
11	33680	1436.519744558021	0
11	33730	1439.272003555705	1
11	33764	1440.501866768671	2
11	33769	1440.509274453195	1
11	33824	1443.507730470815	0
11	33845	1444.51930158654	1
11	33878	1445.618178455852	0
11	33908	1447.35911031461	1
11	33914	1447.995552868195	0
11	33931	1448.588973527576	1
11	33972	1450.25425651046	0
11	34012	1452.606408345445	1
11	34028	1453.25271252808	0
11	34081	1455.446217073515	1
11	34105	1456.676080286481	2
11	34114	1457.000782550105	1
11	34137	1458.390708051823	0
11	34179	1460.69351510435	1
11	34187	1460.782234952237	0
11	34249	1463.53332383242	1
11	34261	1463.815046251514	0
11	34281	1464.763187045386	1
11	34356	1468.780621863255	2
11	34373	1469.783433707227	1
11	34379	1469.880668850068	0
11	34415	1471.620430591325	1
11	34423	1471.993062638205	0
11	34441	1472.850293804291	1
11	34458	1473.444245666353	0
11	34518	1476.86772862216	1
11	34551	1478.53792636445	0
11	34582	1479.70753735023	1
11	34607	1480.937400563196	2
11	34656	1482.487658699875	1
11	34669	1483.23727270428	0
11	34700	1484.954835381065	1
11	34754	1487.73495673071	0
11	34755	1487.794644109135	1
11	34767	1488.07753664573	0
11	34779	1489.024507322101	1
11	34802	1489.983798743925	0
11	34858	1493.04194213997	1
11	34873	1493.73186876595	0
11	34913	1495.88175086804	1
11	34918	1495.980710779165	0
11	34946	1497.111614081006	1
11	34964	1497.479938787975	0
11	35034	1501.129048898875	1
11	35083	1503.476850823215	0
11	35086	1503.968857626945	1
11	35113	1505.198720839911	2
11	35146	1506.378110734698	1
11	35156	1506.554592747394	0
11	35207	1509.21615565778	1
11	35214	1509.307215740669	0
11	35271	1512.05596438585	1
11	35292	1513.285827598816	2
11	35328	1514.72106088929	1
11	35350	1515.470674893695	0
11	35382	1517.303262416685	1
11	35407	1518.4056496385	0
11	35441	1520.143071144755	1
11	35450	1520.71797292453	0
11	35459	1521.372934357721	1
11	35470	1521.467586928935	0
11	35548	1525.39036917559	1
11	35564	1525.965270955365	0
11	35609	1528.23017790366	1
11	35639	1529.460041116626	2
11	35711	1532.71179699501	1
11	35722	1533.477475934495	2
11	35749	1534.21102500382	1
11	35760	1534.960639008225	0
11	35777	1536.317284662565	1
11	35815	1537.547147875531	2
11	35897	1541.5645826934	3
11	35942	1543.518618634113	2
11	35954	1543.956007061085	1
11	35964	1544.40439142147	2
11	35971	1544.70562106549	1
11	35987	1545.634254634436	2
11	35992	1545.700951331993	1
11	36018	1547.153162054141	0
11	36067	1549.651689452305	1
11	36076	1549.952919096325	0
11	36125	1552.491498180375	1
11	36164	1553.721361393341	2
11	36187	1554.799385229824	1
11	36189	1554.927376099688	0
11	36242	1557.73879621121	1
11	36275	1558.948287149185	0
11	36296	1560.57860493928	1
11	36312	1560.865007828378	0
11	36329	1561.808468152246	1
11	36403	1564.945199184425	0
11	36410	1565.825902970115	1
11	36420	1566.444427193235	0
11	36474	1568.665711698185	1
11	36498	1569.895574911151	2
11	36596	1573.91300972902	3
11	36606	1574.119030000083	2
11	36610	1574.69018124169	1
11	36638	1576.1894092505	0
11	36652	1576.75281845709	1
11	36677	1577.734788423887	0
11	36682	1577.982681670056	1
11	36701	1579.18786526812	0
11	36758	1582.000116487925	1
11	36819	1584.839925215995	2
11	36827	1585.127498222594	1
11	36832	1585.345026662401	0
11	36842	1586.069788428961	1
11	36878	1588.032094145344	0
11	36920	1590.08722324683	1
11	36963	1591.931303343005	0
11	36981	1592.9270319749	1
11	37008	1594.156895187866	2
11	37051	1596.045574577451	1
11	37054	1596.428987369435	0
11	37091	1598.174330005735	1
11	37122	1599.840543704996	0
11	37152	1601.014138733805	1
11	37176	1602.244001946771	2
11	37222	1604.67474141789	1
11	37250	1606.26143676464	2
11	37257	1606.357177317533	1
11	37314	1609.10124549271	2
11	37344	1609.922039448725	1
11	37345	1610.331108705676	2
11	37369	1611.60850463407	1
11	37404	1613.584466628025	0
11	37420	1614.348543523545	1
11	37442	1615.16933747956	0
11	37484	1617.188352251615	1
11	37504	1618.418215464581	2
11	37509	1618.488422514641	1
11	37527	1619.118547488786	0
11	37583	1622.43565028245	1
11	37623	1624.16470553242	0
11	37651	1625.27545901052	1
11	37671	1626.505322223486	2
11	37676	1626.806411650938	1
11	37682	1627.16316155004	0
11	37747	1630.522757041355	1
11	37754	1630.705017008848	0
11	37803	1633.362565769425	1
11	37842	1634.592428982391	2
11	37864	1636.118794194464	1
11	37881	1636.627532803232	0
11	37922	1638.60986380026	1
11	37944	1639.71810160958	0
11	37979	1641.44967252833	1
11	38002	1642.679535741296	2
11	38013	1642.905055642545	1
11	38068	1645.783724208134	0
11	38089	1646.696970559165	1
11	38133	1648.901967677785	0
11	38139	1649.536779287235	1
11	38160	1650.401195686595	0
11	38161	1650.766642500201	1
11	38170	1651.21831066435	0
11	38256	1654.78407731807	1
11	38266	1655.031372519694	0
11	38322	1657.62388604614	1
11	38332	1657.914969405242	0
11	38347	1658.853749259106	1
11	38378	1660.489959663196	0
11	38429	1662.871184076975	1
11	38489	1665.710992805045	2
11	38507	1666.1430897791	1
11	38526	1666.940856018011	2
11	38569	1669.14154579672	1
11	38580	1670.04621460235	0
11	38602	1670.95829083588	1
11	38617	1671.645503432124	0
11	38656	1673.79809956395	1
11	38668	1674.477480294963	0
11	38674	1675.027962776916	1
11	38677	1675.108231777646	0
11	38748	1679.045397594785	1
11	38804	1681.294850491363	0
11	38827	1681.885206322855	1
11	38849	1683.115069535821	2
11	38889	1684.883439889225	1
11	38893	1685.051870679647	0
11	38928	1687.13250435369	1
11	38947	1688.243082398012	0
11	38980	1689.97231308176	1
11	39021	1691.202176294726	2
11	39064	1693.80636333687	1
11	39080	1694.308704996566	0
11	39098	1695.219611112595	1
11	39139	1697.400242795025	0
11	39154	1698.059419840665	1
11	39182	1699.289283053631	2
11	39211	1700.37432759512	1
11	39219	1700.740958266632	0
11	39254	1703.3067178715	1
11	39265	1703.62378999935	0
11	39308	1706.14652659957	1
11	39342	1707.376389812536	2
11	39361	1708.12147402578	1
11	39376	1708.871088030185	0
11	39430	1711.393824630405	1
11	39433	1711.43246112247	0
11	39482	1714.233633358475	1
11	39508	1715.417966718239	0
11	39509	1715.463496571441	1
11	39514	1715.538384091505	0
11	39599	1719.48093138931	1
11	39622	1720.864912100665	0
11	39645	1722.32074011738	1
11	39671	1723.550603330346	2
11	39675	1723.663720766694	1
11	39694	1724.61298212269	0
11	39756	1727.568038148215	1
11	39817	1730.407846876285	2
11	39844	1731.637710089251	3
11	39872	1732.926952032685	2
11	39879	1733.60835017555	1
11	39882	1733.735251887167	0
11	39918	1735.65514490712	1
11	39925	1735.857192188765	0
11	39977	1738.49495363519	1
11	40001	1739.724816848156	2
11	40058	1742.833685784998	1
11	40079	1743.742251666025	2
11	40094	1744.407922727893	1
11	40113	1745.60217424603	0
11	40136	1746.582060394095	1
11	40156	1747.526214558594	0
11	40157	1747.811923607061	1
11	40184	1748.899308383552	0
11	40241	1751.82935842493	1
11	40291	1754.669167153	2
11	40325	1755.899030365966	3
11	40377	1758.345612320915	2
11	40390	1759.09522632532	1
11	40401	1759.461460342423	0
11	40405	1759.916465183835	1
11	40463	1762.756273911905	2
11	40493	1763.986137124871	3
11	40565	1767.340980373775	2
11	40579	1768.00357194274	3
11	40584	1768.09059437818	2
11	40641	1770.84338067081	3
11	40648	1771.0890503958	2
11	40660	1772.073243883776	3
11	40676	1772.596797251877	2
11	40740	1776.090678701645	3
11	40781	1777.943865121307	2
11	40794	1778.930487429715	3
11	40819	1779.531392181639	2
11	40830	1780.160350642681	3
11	40843	1780.834032453065	2
11	40876	1782.544185187486	1
11	40889	1783.08287446628	0
11	40906	1784.17778546055	1
11	40962	1787.01759418862	2
11	40991	1788.247457401586	3
11	41026	1789.07978650152	2
11	41030	1789.385425261473	1
11	41055	1790.57901451033	0
11	41084	1792.264892219455	1
11	41108	1793.57747052795	0
11	41141	1795.104700947525	1
11	41147	1795.452850435753	0
11	41164	1796.334564160491	1
11	41206	1798.139917918696	0
