version 2
run conf3-4-20161125-01:35:30-2828
attr configname conf3
attr datetime 20161125-01:35:30
attr experiment conf3
attr i 5
attr inifile omnetpp.ini
attr iterationvars "$i=5, $p=5, $q=1"
attr iterationvars2 "$i=5, $p=5, $q=1, $repetition=0"
attr measurement "$i=5, $p=5, $q=1"
attr network Omrezje
attr p 5
attr processid 2828
attr q 1
attr repetition 0
attr replication #0
attr resultdir results
attr runnumber 4
attr seedset 4
param Omrezje.router*.processingTime "truncnormal(${p = 5..7 step 2}, ${p} * 0.5)"
param Omrezje.router*.queueCapacity "truncnormal(${q = 1..6 step 5}, 0)"
param Omrezje.source*.interArrivalTime "truncnormal(${i = 3..5 step 2}, ${i} * 0.5)"

vector 0  Omrezje.router  droppedPackage:vector  ETV
attr interpolationmode  none
attr title  "drop package, vector"
vector 1  Omrezje.router  queueLength:vector  ETV
attr interpolationmode  none
attr title  "queue length, vector"
vector 2  Omrezje.router1  droppedPackage:vector  ETV
attr interpolationmode  none
attr title  "drop package, vector"
vector 3  Omrezje.router1  queueLength:vector  ETV
attr interpolationmode  none
attr title  "queue length, vector"
vector 4  Omrezje.router2  droppedPackage:vector  ETV
attr interpolationmode  none
attr title  "drop package, vector"
vector 5  Omrezje.router2  queueLength:vector  ETV
attr interpolationmode  none
attr title  "queue length, vector"
vector 6  Omrezje.router3  droppedPackage:vector  ETV
attr interpolationmode  none
attr title  "drop package, vector"
vector 7  Omrezje.router3  queueLength:vector  ETV
attr interpolationmode  none
attr title  "queue length, vector"
vector 8  Omrezje.router4  droppedPackage:vector  ETV
attr interpolationmode  none
attr title  "drop package, vector"
vector 9  Omrezje.router4  queueLength:vector  ETV
attr interpolationmode  none
attr title  "queue length, vector"
vector 10  Omrezje.router5  droppedPackage:vector  ETV
attr interpolationmode  none
attr title  "drop package, vector"
vector 11  Omrezje.router5  queueLength:vector  ETV
attr interpolationmode  none
attr title  "queue length, vector"
0	0	0	0
0	207	11.489217205034	1
0	220	13.511410179293	2
0	322	25.723043012585	3
0	389	33.612879120342	4
0	447	40.37136726431	5
0	558	55.719914170034	6
0	618	63.679911832721	7
0	751	77.913737640272	8
0	788	82.658346242789	9
0	814	86.417007981482	10
0	843	89.240162957861	11
0	870	92.147563447823	12
0	897	95.792404598596	13
0	954	101.765554887206	14
0	1038	111.125997857891	15
0	1045	111.892325772207	16
0	1051	113.276965066499	17
0	1115	120.951238519361	18
0	1128	122.452573636287	19
0	1151	125.359823665442	20
0	1175	128.625511972223	21
0	1268	140.136922151516	22
0	1316	147.811195604378	23
0	1361	153.827475280544	24
0	1372	155.48546905724	25
0	1435	163.316692485578	26
0	1462	167.106496982745	27
0	1479	169.593427880821	28
0	1486	169.898874605467	29
0	1553	178.911515449727	30
0	1570	182.295126895646	31
0	1644	191.78434410068	32
0	1657	193.622025090057	33
0	1715	201.273561305714	34
0	1721	201.531109774412	35
0	1762	207.841310546051	36
0	1788	210.762778510748	37
0	1819	215.507387113265	38
0	1827	216.879656680136	39
0	1836	217.343320296409	40
0	1854	220.251995715782	41
0	1860	220.716793406567	42
0	1982	239.23043012585	43
0	1997	241.068326059237	44
0	2009	243.975038728367	45
0	2111	259.088160670877	46
0	2143	264.791476543827	47
0	2213	274.436707576601	48
0	2219	277.187298945986	49
0	2239	279.025366834581	50
0	2247	280.831774691942	51
0	2364	300.910341958571	52
0	2395	305.257761095321	53
0	2416	308.97093811448	54
0	2517	324.319485020204	55
0	2520	324.633384971156	56
0	2529	326.471667803761	57
0	2532	328.156621746635	58
0	2541	329.377993573673	59
0	2546	330.376172752153	60
0	2576	335.830895199497	61
0	2649	348.356427983741	62
0	2654	349.214981494777	63
0	2676	353.101036586258	64
0	2690	354.939448385269	65
0	2693	355.016578831652	66
0	2702	357.845645188775	67
0	2712	359.684078482187	68
0	2735	362.690852284514	69
0	2756	367.334862393809	70
0	2809	378.039399190238	71
0	2823	380.612996065817	72
0	2826	381.56868820136	73
0	2859	386.36902592016	74
0	2867	389.611769225285	75
0	2885	392.896489160613	76
0	2924	400.547122611428	77
0	2930	401.062219548824	78
0	2971	410.036339816462	79
0	3027	420.507303502295	80
0	3047	424.08503990741	81
0	3058	424.570216465273	82
0	3092	433.759382829047	83
0	3106	435.596450086703	84
0	3118	438.503991431564	85
0	3151	443.270723539565	86
0	3159	446.672812517147	87
0	3163	447.107860265996	88
0	3169	447.993208636598	89
0	3174	449.688628122105	90
0	3198	454.217745111274	91
0	3202	454.782133718858	92
0	3274	466.971643046666	93
0	3281	468.527436864729	94
0	3306	473.196179521342	95
0	3319	476.4608602517	96
0	3324	477.568346794157	97
0	3374	485.950077456734	98
0	3385	487.366245607353	99
0	3398	489.316364256737	100
0	3421	493.153500983168	101
0	3442	497.278351292809	102
0	3451	500.183903264285	103
0	3457	500.82777443603	104
0	3477	504.928511866802	105
0	3493	508.463881071167	106
0	3497	508.502047888892	107
0	3500	509.673120469319	108
0	3522	512.484657264185	109
0	3550	518.762392496837	110
0	3563	520.013458068185	111
0	3589	523.90694627687	112
0	3646	533.790929184665	113
0	3654	535.362004973909	114
0	3669	537.603068921017	115
0	3675	538.140772084421	116
0	3706	543.882671835225	117
0	3714	546.873415153202	118
0	3717	547.629989289455	119
0	3738	550.710551879633	120
0	3780	558.735448766122	121
0	3789	559.956438199517	122
0	3799	561.863815097006	123
0	3805	562.221962058926	124
0	3851	571.35303230204	125
0	3885	577.57050896465	126
0	3926	585.586858109591	127
0	3938	587.06678598175	128
0	3948	589.081919143943	129
0	3951	590.331466712108	130
0	3998	599.534675101649	131
0	4001	599.820683917142	132
0	4015	600.943952756863	133
0	4023	604.430466049667	134
0	4048	609.309901122176	135
0	4066	612.104739502529	136
0	4072	614.054509724693	137
0	4142	628.288335532244	138
0	4162	631.290423134684	139
0	4201	638.076715548345	140
0	4204	638.964696587546	141
0	4216	642.522161339795	142
0	4235	646.638970040408	143
0	4248	648.746697814471	144
0	4257	650.476106766839	145
0	4262	650.635921376761	146
0	4271	652.011378544829	147
0	4306	658.150380219701	148
0	4309	658.595774588021	149
0	4330	661.987516946132	150
0	4341	665.824653672563	151
0	4354	667.725132224539	152
0	4382	672.101704610241	153
0	4388	673.498927125425	154
0	4405	677.336063851856	155
0	4410	677.970089144045	156
0	4422	680.479030159931	157
0	4435	682.033935947801	158
0	4524	700.358884210442	159
0	4529	700.872744690425	160
0	4540	704.196020936873	161
0	4587	713.431950518841	162
0	4593	713.69129037755	163
0	4639	723.180507582584	164
0	4645	723.381704569028	165
0	4655	724.732621010237	166
0	4693	732.669724787618	167
0	4707	734.509856138709	168
0	4710	734.893114748321	169
0	4724	738.550362175673	170
0	4762	746.404524927614	171
0	4768	746.903550595169	172
0	4824	757.915935106907	173
0	4835	761.13737640272	174
0	4843	761.753071833338	175
0	4895	771.881370184555	176
0	4901	773.264482012631	177
0	4910	775.371202210271	178
0	4918	777.101618739062	179
0	4945	780.938755465493	180
0	4950	782.507582575129	181
0	4959	784.775892191924	182
0	4962	784.860419415305	183
0	4976	788.613028918355	184
0	4978	788.787185489337	185
0	5006	794.349636620339	186
0	5048	801.346391317753	187
0	5056	803.838853825373	188
0	5062	803.961575824079	189
0	5081	807.79871255051	190
0	5084	808.58346242789	191
0	5110	813.328071030407	192
0	5146	819.310122729803	193
0	5196	827.717735266937	194
0	5205	830.821532909096	195
0	5241	837.051114042992	196
0	5249	838.016246692607	197
0	5253	838.495806361958	198
0	5276	842.332943088389	199
0	5286	845.303611717209	200
0	5305	848.314758118277	201
0	5381	861.518626720544	202
0	5383	862.254084927736	203
0	5397	864.142420459833	204
0	5400	865.355763446975	205
0	5406	865.518765658094	206
0	5417	867.359498852413	207
0	5426	869.192900173406	208
0	5463	876.701626288249	209
0	5497	881.232519337804	210
0	5507	884.497200068162	211
0	5513	884.54144707913	212
0	5542	889.241808670679	213
0	5568	895.015298731282	214
0	5605	901.820037945081	215
0	5677	915.238540890578	216
0	5682	917.709460285781	217
0	5697	919.075677617009	218
0	5716	922.91281434344	219
0	5720	923.933996760457	220
0	5729	926.938449601913	221
0	5753	930.587087796302	222
0	5774	933.423213965491	223
0	5778	934.424224522733	224
0	5787	936.687894695849	225
0	5801	938.261361249164	226
0	5838	945.935634702026	227
0	5856	949.772771428457	228
0	5888	955.666329105917	229
0	5895	956.029897637135	230
0	5913	960.410937708434	231
0	5921	961.598383800647	232
0	5961	968.958455060612	233
0	5967	969.900154913468	234
0	6032	983.454875829785	235
0	6035	984.133980721019	236
0	6043	985.975251275363	237
0	6052	988.144138692767	238
0	6110	998.36780652857	239
0	6198	1015.004095777784	240
0	6222	1021.132493315033	241
0	6249	1025.865973464627	242
0	6321	1039.971302057657	243
0	6332	1041.069283951223	244
0	6382	1050.558501156257	245
0	6399	1052.530507886073	246
0	6421	1057.144702729133	247
0	6424	1057.212599768525	248
0	6433	1060.047718361291	249
0	6469	1065.089713714489	250
0	6477	1069.313523319505	251
0	6484	1069.536935566325	252
0	6495	1071.369316628697	253
0	6542	1080.235420127111	254
0	6547	1080.867853213723	255
0	6562	1083.770761373876	256
0	6589	1088.515369976393	257
0	6594	1089.910546170845	258
0	6679	1107.095377212128	259
0	6731	1116.983021591495	260
0	6747	1121.606139942361	261
0	6759	1122.443924117852	262
0	6793	1127.885742856569	263
0	6799	1131.216847399046	264
0	6818	1134.165345770777	265
0	6844	1137.792471023576	266
0	6854	1140.444948684985	267
0	6857	1140.70606460408	268
0	6862	1141.403103299195	269
0	6889	1145.466744476438	270
0	6917	1152.037304667493	271
0	6924	1153.1410179293	272
0	6933	1154.939890411631	273
0	6945	1156.978154655731	274
0	6968	1161.526564861329	275
0	6983	1164.652428108593	276
0	7019	1171.015825055165	277
0	7025	1172.326701561455	278
0	7028	1173.918324821699	279
0	7033	1174.98292776696	280
0	7045	1176.163838287886	281
0	7070	1180.000975014317	282
0	7082	1183.407542026733	283
0	7088	1183.838111740748	284
0	7090	1184.188735174375	285
0	7113	1188.15215062925	286
0	7118	1188.165635165387	287
0	7130	1190.681771998649	288
0	7133	1191.51238519361	289
0	7136	1192.896759231767	290
0	7153	1195.349521920041	291
0	7168	1197.641367834284	292
0	7174	1199.186658646472	293
0	7186	1202.385976436801	294
0	7194	1203.240977827065	295
0	7235	1211.875193641835	296
0	7240	1212.660545252208	297
0	7246	1213.717495927427	298
0	7278	1218.372342278627	299
0	7289	1221.364410846869	300
0	7336	1227.951386218181	301
0	7342	1230.853628051903	302
0	7358	1233.720889184351	303
0	7360	1234.638992398105	304
0	7438	1249.832062461971	305
0	7451	1251.674536702771	306
0	7454	1252.906572816506	307
0	7468	1254.686728981565	308
0	7486	1259.321279667005	309
0	7491	1259.757404054937	310
0	7500	1261.708819367551	311
0	7552	1272.092256448661	312
0	7600	1279.766529901523	313
0	7612	1283.04432267959	314
0	7618	1283.603666627954	315
0	7622	1284.875815711769	316
0	7627	1285.582263258575	317
0	7653	1291.277940080816	318
0	7661	1294.295383136912	319
0	7673	1295.115076807247	320
0	7692	1298.952213533678	321
0	7713	1302.789350260109	322
0	7727	1306.767365692175	323
0	7769	1314.300760439402	324
0	7882	1335.235017307277	325
0	7926	1344.724234512311	326
0	7945	1348.834990977281	327
0	7958	1350.948770986987	328
0	7974	1352.672127703712	329
0	7976	1352.941817976107	330
0	7993	1356.056398834967	331
0	7996	1356.509264430143	332
0	8017	1360.346401156574	333
0	8028	1363.240329401777	334
0	8032	1363.702668922379	335
0	8038	1364.183537883005	336
0	8066	1369.927205397055	337
0	8093	1373.191886127413	338
0	8123	1379.532084788729	339
0	8196	1394.013439610311	340
0	8202	1394.880631694453	341
0	8221	1398.717768420884	342
0	8256	1406.404146345032	343
0	8281	1411.148754947549	344
0	8295	1414.066315326608	345
0	8320	1417.903452053039	346
0	8323	1420.637972152583	347
0	8335	1421.74058877947	348
0	8391	1433.251998958763	349
0	8438	1441.459740579491	350
0	8483	1450.358446069295	351
0	8554	1463.339449575236	352
0	8583	1468.084058177753	353
0	8604	1472.82866678027	354
0	8611	1473.263903138009	355
0	8619	1475.460502949504	356
0	8645	1481.253980346305	357
0	8651	1482.317883985304	358
0	8657	1483.134776402366	359
0	8679	1486.971913128797	360
0	8715	1492.102711880633	361
0	8721	1494.646186581659	362
0	8821	1513.831870213814	363
0	8830	1515.530144202923	364
0	8843	1517.221123537465	365
0	8871	1525.019361407957	366
0	8877	1525.343280393107	367
0	8899	1529.180417119538	368
0	8938	1536.8546905724	369
0	8945	1538.315023638167	370
0	8978	1544.528964025262	371
0	9015	1550.586232808605	372
0	9026	1553.343560325995	373
0	9030	1553.487013023059	374
0	9041	1556.040374204555	375
0	9063	1558.912046489507	376
0	9070	1559.877510930986	377
0	9134	1572.465447433127	378
0	9141	1573.737549765337	379
0	9146	1575.22605783671	380
0	9184	1582.900331289572	381
0	9203	1586.699273240678	382
0	9209	1586.737468016003	383
0	9251	1594.411741468865	384
0	9254	1596.188490445712	385
0	9268	1598.248878195296	386
0	9311	1606.273775081785	387
0	9316	1607.521793971621	388
0	9328	1609.760288374589	389
0	9336	1610.422316253263	390
0	9347	1613.59742510102	391
0	9352	1615.16692485578	392
0	9357	1615.473088221937	393
0	9368	1617.694770164793	394
0	9396	1623.974373079001	395
0	9401	1624.656142060814	396
0	9407	1625.108835280313	397
0	9409	1625.433140305685	398
0	9431	1629.400750663331	399
0	9472	1638.889967868365	400
0	9484	1640.457382186037	401
0	9513	1644.294518912468	402
0	9517	1646.030163157025	403
0	9524	1648.131655638899	404
0	9530	1648.379185073399	405
0	9543	1650.223464843883	406
0	9546	1651.96879236533	407
0	9569	1655.805929091761	408
0	9581	1659.643065818192	409
0	9586	1659.712725037719	410
0	9609	1663.480202544623	411
0	9631	1667.357619483467	412
0	9673	1674.991612723916	413
0	9682	1676.846836688501	414
0	9696	1678.828749450347	415
0	9737	1686.770402221081	416
0	9739	1687.224208859705	417
0	9777	1694.177296356071	418
0	9787	1697.305198970728	419
0	9803	1699.329608049497	420
0	9806	1700.569879701086	421
0	9815	1701.851569808933	422
0	9854	1709.525843261795	423
0	9860	1710.05909690612	424
0	9906	1719.788193140538	425
0	9926	1724.292922713671	426
0	9935	1724.874390167519	427
0	9966	1730.727622620537	428
0	9975	1733.782139918705	429
0	10017	1740.222937073243	430
0	10036	1743.286828448953	431
0	10042	1744.060073799674	432
0	10070	1749.566431363161	433
0	10077	1751.536268550547	434
0	10089	1752.760574328773	435
0	10100	1755.571483978967	436
0	10167	1767.08289415826	437
0	10203	1776.483617341358	438
0	10222	1779.910811690735	439
0	10230	1781.228225943875	440
0	10236	1782.431441063984	441
0	10264	1786.268577790415	442
0	10304	1793.942851243277	443
0	10309	1795.462051751426	444
1	0	0	0
1	189	8.581451310255	0
1	254	17.713775174111	1
1	269	20.62154106889	0
1	290	21.430835289526	1
1	300	22.643734043149	0
1	352	29.753864932746	1
1	365	30.533283998597	0
1	369	31.776057907005	1
1	379	32.697093811448	0
1	399	34.855366876441	1
1	432	39.665607862453	0
1	455	41.829417675304	1
1	456	42.027858140866	0
1	458	42.745202984198	1
1	472	44.208503990741	0
1	504	48.797931726309	1
1	518	49.503691128166	0
1	523	51.160182004722	1
1	540	53.340827854597	0
1	578	58.636014992022	1
1	606	62.473151718453	0
1	608	62.624880992206	1
1	613	63.394187622896	0
1	631	64.85223803389	1
1	643	66.62625007934	0
1	689	71.605475582309	1
1	696	72.526511486752	0
1	698	72.812235696577	1
1	702	72.923392417876	0
1	729	75.758573943196	1
1	736	76.92476150501	0
1	776	81.658835350608	1
1	778	82.055716281732	0
1	793	83.221903843546	1
1	808	86.057085368866	0
1	819	87.046061504128	1
1	824	87.402954845306	0
1	858	91.188040145588	1
1	862	91.790670106645	0
1	891	95.189409232722	1
1	892	95.549331845338	0
1	905	96.535278709162	1
1	909	96.89217205034	0
1	922	98.372486821717	1
1	935	100.922993970501	0
1	940	101.279887311679	1
1	946	101.636780652857	0
1	972	103.818926694886	1
1	975	104.230868056762	0
1	978	104.681655709194	1
1	980	104.924728462452	0
1	991	106.024495914196	1
1	1024	110.055317834357	0
1	1028	110.769104516713	1
1	1033	110.897878751062	0
1	1052	113.363191920618	1
1	1054	114.057052326308	0
1	1055	114.117438120556	1
1	1078	115.870606460408	0
1	1092	119.187641698213	1
1	1099	120.030202614918	0
1	1102	120.258321721747	1
1	1109	120.615215062925	0
1	1116	121.024649636063	1
1	1125	122.409288930355	0
1	1132	123.189376190164	1
1	1145	125.002930324264	0
1	1180	129.162526478774	1
1	1186	129.747538926781	0
1	1188	130.083562383217	1
1	1199	131.541612794211	0
1	1200	131.584897500143	1
1	1219	134.13525418812	0
1	1220	134.492147529298	1
1	1221	134.714460971896	0
1	1245	137.757835836079	1
1	1253	138.879862790637	0
1	1272	140.673936658067	1
1	1282	143.267578051976	0
1	1284	143.846784835752	1
1	1287	143.974058877947	0
1	1296	145.012972397566	1
1	1301	146.175724120877	0
1	1318	148.012186654493	1
1	1330	149.082866678027	0
1	1337	149.269246015372	1
1	1340	150.337295112191	0
1	1349	152.399901915832	1
1	1355	153.106382741803	0
1	1368	155.308047984733	1
1	1369	155.311483823236	0
1	1380	156.943519468234	1
1	1392	158.215190541883	0
1	1408	159.469618976047	1
1	1412	160.409614411631	0
1	1418	162.238706605659	1
1	1426	162.9597991444	0
1	1444	164.443807687092	1
1	1445	164.617792921096	0
1	1453	165.609995248906	1
1	1460	166.996879236533	0
1	1463	167.347514405739	1
1	1477	169.541938275487	0
1	1497	172.092123008256	1
1	1498	172.449016349434	0
1	1511	173.750116784952	1
1	1520	174.671152689395	0
1	1523	176.129203100389	1
1	1525	176.238820846601	0
1	1547	178.674262139343	1
1	1548	178.725751744677	0
1	1555	179.031198469323	1
1	1567	181.58134021329	0
1	1587	183.803476553251	1
1	1597	185.371144710457	0
1	1605	186.207018100246	1
1	1619	187.858075608533	0
1	1623	188.043839313583	1
1	1632	190.019699595119	0
1	1639	190.713664077146	1
1	1641	191.427450759502	0
1	1663	194.503468574313	1
1	1674	196.528952703197	0
1	1681	196.990399472389	1
1	1705	199.152023458975	0
1	1710	200.559774623358	1
1	1712	200.916667964536	0
1	1732	202.754348953913	1
1	1743	204.784114467993	0
1	1748	205.661276567053	1
1	1753	206.018169908231	0
1	1767	208.284347322831	1
1	1779	210.048991828392	0
1	1780	210.40588516957	1
1	1785	210.663433638268	0
1	1803	213.916438331849	1
1	1805	215.150493772087	0
1	1829	216.973634409907	1
1	1830	217.102552377256	0
1	1843	219.181315692248	1
1	1847	219.795757502124	0
1	1848	219.895102374604	1
1	1850	220.105561152407	0
1	1873	224.282817635943	1
1	1877	224.553930132998	0
1	1878	224.639710977121	1
1	1889	226.011980543992	0
1	1891	226.234876241112	1
1	1892	226.475644160265	0
1	1898	227.401063802926	1
1	1912	228.92808136598	0
1	1915	229.237885016263	1
1	1916	229.384319579638	0
1	1924	229.849117270423	1
1	1935	232.164088214402	0
1	1945	233.686253996854	1
1	1953	234.485821523333	0
1	1958	235.144304407848	1
1	1962	235.607968024121	0
1	1972	238.060405229836	1
1	1973	238.516643443494	0
1	1998	241.296412078258	1
1	2003	243.618145387189	0
1	2013	244.740291887977	1
1	2027	247.576750491584	0
1	2029	247.64896730735	1
1	2032	247.998086654266	0
1	2033	248.362753989706	1
1	2044	248.741334867449	0
1	2051	250.200649923093	1
1	2061	251.413887218015	0
1	2066	252.750469251045	1
1	2073	253.464255933401	0
1	2090	256.70907435544	1
1	2094	257.130410518122	0
1	2095	257.873658731305	1
1	2103	258.545895568777	0
1	2123	260.546211081871	1
1	2126	261.299606855087	0
1	2130	262.596579797257	1
1	2137	262.953473138435	0
1	2153	266.262734381978	1
1	2160	266.806101765412	0
1	2166	267.678219432633	1
1	2170	267.698081740952	0
1	2180	270.431930718943	1
1	2192	272.085797002291	0
1	2214	275.938425629268	1
1	2216	276.830405604808	0
1	2249	281.218120866147	1
1	2265	283.769996931499	0
1	2272	285.962729468664	1
1	2320	292.195141132097	0
1	2325	292.902320795355	1
1	2338	296.165733356054	0
1	2371	301.327464995953	1
1	2377	302.493652557767	0
1	2396	305.29805721991	1
1	2412	307.493147416089	0
1	2438	311.625976421623	1
1	2460	315.144167766122	0
1	2467	316.625471279945	1
1	2514	324.276491629978	0
1	2561	333.408815493834	1
1	2564	334.12260217619	0
1	2621	343.254926040046	1
1	2625	343.505168652359	0
1	2667	352.637492516215	1
1	2673	353.019307597722	0
1	2722	362.151631461578	1
1	2729	362.590253791292	0
1	2771	371.722577655148	1
1	2796	374.202262463807	0
1	2839	383.334586327663	1
1	2854	386.313296803877	0
1	2894	395.445620667733	1
1	2899	395.802514008911	0
1	2947	404.934837872767	1
1	2957	405.478766814467	0
1	2994	414.611090678323	1
1	3025	420.247903180979	0
1	3077	429.380227044835	1
1	3086	431.759313360272	0
1	3130	440.891637224128	1
1	3145	443.248600034081	0
1	3186	452.380923897937	1
1	3190	452.737817239115	0
1	3234	461.870141102971	1
1	3242	462.227034444149	0
1	3291	471.359358308005	1
1	3295	471.716251649183	0
1	3346	480.848575513039	1
1	3353	481.205468854217	0
1	3400	490.337792718073	1
1	3416	492.17461393141	0
1	3461	501.306937795266	1
1	3468	504.290448871622	0
1	3523	513.422772735478	1
1	3528	514.417729071836	0
1	3579	523.550052935692	1
1	3586	523.850594794616	0
1	3636	532.982918658472	1
1	3641	533.396163481904	0
1	3693	542.52848734576	1
1	3704	543.036278426771	0
1	3742	552.168602290627	1
1	3769	557.119206494489	0
1	3816	566.251530358345	1
1	3823	566.608423699523	0
1	3875	575.740747563379	1
1	3879	576.097640904557	0
1	3919	585.229964768413	1
1	3923	585.244782417512	0
1	3974	594.377106281368	1
1	3988	596.756192596805	0
1	4036	605.888516460661	1
1	4045	608.267602776098	0
1	4084	617.399926639954	1
1	4117	623.543726929727	0
1	4171	632.676050793583	1
1	4196	637.777552737278	0
1	4236	646.909876601134	1
1	4239	647.074554867035	0
1	4288	656.206878730891	1
1	4294	656.755987147346	0
1	4342	665.888311011202	1
1	4346	666.24520435238	0
1	4392	675.377528216236	1
1	4397	675.734421557414	0
1	4439	684.86674542127	1
1	4509	696.521747484011	0
1	4553	705.654071347867	1
1	4567	708.033157663304	0
1	4606	717.16548152716	1
1	4616	718.435898980067	0
1	4665	727.568222843923	1
1	4678	729.765226041791	0
1	4728	738.897549905647	1
1	4744	742.567388201183	0
1	4793	751.699712065039	1
1	4801	753.488376526381	0
1	4847	762.620700390237	1
1	4882	769.4273452862	0
1	4927	778.559669150056	1
1	4934	780.115810812788	0
1	4979	789.248134676644	1
1	4984	789.605028017822	0
1	5024	798.737351881678	1
1	5038	800.124439097648	0
1	5088	809.256762961504	1
1	5102	811.635849276941	0
1	5150	820.768173140797	1
1	5165	823.147259456234	0
1	5216	832.27958332009	1
1	5221	832.306505440475	0
1	5265	841.438829304331	1
1	5270	841.795722645509	0
1	5320	850.928046509365	1
1	5324	851.284939850543	0
1	5371	860.417263714399	1
1	5375	860.774157055577	0
1	5427	869.906480919433	1
1	5432	870.263374260611	0
1	5480	879.395698124467	1
1	5492	880.704310352699	0
1	5548	889.836634216555	1
1	5563	893.986417273196	0
1	5606	903.118741137052	1
1	5660	912.964851683264	0
1	5703	922.09717554712	1
1	5707	922.454068888298	0
1	5759	931.586392752154	1
1	5766	931.943286093332	0
1	5810	941.075609957188	1
1	5815	941.432503298366	0
1	5863	950.564827162222	1
1	5876	953.609908154888	0
1	5926	962.742232018744	1
1	5947	965.155546310951	0
1	5984	974.287870174807	1
1	6019	980.469865239905	0
1	6062	989.602189103761	1
1	6085	993.623197926053	0
1	6130	1002.755521789909	1
1	6155	1007.329822324922	0
1	6201	1016.462146188778	1
1	6206	1017.346240938638	0
1	6250	1026.478564802494	1
1	6258	1026.835458143672	0
1	6301	1035.967782007528	1
1	6308	1036.324675348706	0
1	6353	1045.456999212562	1
1	6361	1045.81389255374	0
1	6406	1054.946216417596	1
1	6411	1055.303109758774	0
1	6457	1064.43543362263	1
1	6461	1064.792326963808	0
1	6507	1073.924650827664	1
1	6528	1077.648919542905	0
1	6576	1086.781243406761	1
1	6581	1087.909693579973	0
1	6630	1097.042017443829	1
1	6643	1099.421103759266	0
1	6689	1108.553427623122	1
1	6718	1114.080263892149	0
1	6760	1123.212587756005	1
1	6785	1126.472238796529	0
1	6822	1135.604562660385	1
1	6837	1137.441383873722	0
1	6893	1146.573707737578	1
1	6903	1149.303881202869	0
1	6949	1158.436205066725	1
1	6955	1159.283757427609	0
1	6999	1168.416081291465	1
1	7003	1168.489564835024	0
1	7052	1177.62188869888	1
1	7055	1177.867123739717	0
1	7104	1186.999447603573	1
1	7108	1187.675248467179	0
1	7159	1196.807572331035	1
1	7165	1196.961374912857	0
1	7198	1206.093698776713	1
1	7208	1207.130585039318	0
1	7256	1216.262908903174	1
1	7261	1216.619802244352	0
1	7312	1225.752126108208	1
1	7317	1226.046615731489	0
1	7361	1235.178939595345	1
1	7366	1235.59823665442	0
1	7409	1244.730560518276	1
1	7419	1245.232299363644	0
1	7458	1254.3646232275	1
1	7463	1254.576671064488	0
1	7504	1263.708994928344	1
1	7508	1264.065888269522	0
1	7558	1273.198212133378	1
1	7594	1278.596212797561	0
1	7632	1287.728536661417	1
1	7636	1287.788931282107	0
1	7680	1296.921255145963	1
1	7684	1297.278148487141	0
1	7719	1306.410472350997	1
1	7724	1306.62648698654	0
1	7773	1315.758810850396	1
1	7805	1321.001191499726	0
1	7849	1330.133515363582	1
1	7854	1330.49040870476	0
1	7900	1339.622732568616	1
1	7907	1339.979625909794	0
1	7949	1349.11194977365	1
1	7953	1349.468843114828	0
1	8003	1358.601166978684	1
1	8008	1358.958060319862	0
1	8057	1368.090384183718	1
1	8061	1368.447277524896	0
1	8108	1377.579601388752	1
1	8114	1377.93649472993	0
1	8154	1387.068818593786	1
1	8188	1392.170320537481	0
1	8225	1401.302644401337	1
1	8253	1406.392041873746	0
1	8302	1415.524365737602	1
1	8307	1415.893363550066	0
1	8347	1425.025687413922	1
1	8351	1425.031397955797	0
1	8398	1434.163721819653	1
1	8424	1439.616406562651	0
1	8470	1448.748730426507	1
1	8478	1449.105623767685	0
1	8523	1458.237947631541	1
1	8539	1460.074768844878	0
1	8587	1469.207092708734	1
1	8592	1469.927521160999	0
1	8632	1479.059845024855	1
1	8637	1479.297639675935	0
1	8686	1488.429963539791	1
1	8708	1491.807101190338	0
1	8752	1500.939425054194	1
1	8807	1510.785535600406	0
1	8847	1519.917859464262	1
1	8865	1521.754680677599	0
1	8909	1530.887004541455	1
1	8932	1536.352342517851	0
1	8979	1545.484666381707	1
1	9007	1548.742404420542	0
1	9051	1557.874728284398	1
1	9058	1558.231621625576	0
1	9099	1567.363945489432	1
1	9113	1567.72083883061	0
1	9150	1576.853162694466	1
1	9166	1579.054013390113	0
1	9213	1588.186337253969	1
1	9226	1590.574604742434	0
1	9277	1599.70692860629	1
1	9283	1600.933099048229	0
1	9329	1610.065422912085	1
1	9332	1610.404603617857	0
1	9372	1619.536927481713	1
1	9385	1621.271698553882	0
1	9441	1630.404022417738	1
1	9448	1634.145359265848	0
1	9500	1643.277683129704	1
1	9504	1643.634576470882	0
1	9547	1652.766900334738	1
1	9554	1653.123793675916	0
1	9599	1662.256117539772	1
1	9603	1662.61301088095	0
1	9652	1671.745334744806	1
1	9656	1672.020499097448	0
1	9705	1681.152822961304	1
1	9729	1686.336053893535	0
1	9778	1695.468377757391	1
1	9782	1695.825271098569	0
1	9828	1704.957594962425	1
1	9838	1705.609210963705	0
1	9877	1714.741534827561	1
1	9901	1719.548314111154	0
1	9944	1728.68063797501	1
1	9949	1728.71152689395	0
1	10001	1737.843850757806	1
1	10006	1738.526748521222	0
1	10046	1747.659072385078	1
1	10067	1749.015277413725	0
1	10112	1758.147601277581	1
1	10134	1762.125637191577	0
1	10178	1771.257961055433	1
1	10183	1771.739008738841	0
1	10224	1780.871332602697	1
1	10227	1780.964445934201	0
1	10271	1790.096769798057	1
1	10279	1790.717443148909	0
1	10331	1799.849767012765	1
2	0	0	0
2	161	2	1
2	187	8.279602914208	2
2	203	11.344161664908	3
2	210	11.489260193836	4
2	241	16.233890290754	5
2	283	20.978520387672	6
2	325	25.72315048459	7
2	334	27.118411656832	8
2	387	33.39801457104	9
2	400	34.855366876441	10
2	410	35.212410678426	11
2	436	39.677617485248	12
2	444	39.957040775344	13
2	466	43.19404570268	14
2	489	45.957220399456	15
2	517	49.44630096918	16
2	576	58.516426227872	17
2	587	58.935561163016	18
2	621	63.680191259934	19
2	640	66.042716772686	20
2	678	70.743791545989	21
2	744	77.355234970496	22
2	754	77.914081550688	23
2	765	79.649034805547	24
2	799	83.634837884704	25
2	859	91.188040145588	26
2	873	92.147971841442	27
2	902	96.19404371312	28
2	923	98.372486821717	29
2	925	98.720404416751	30
2	963	102.473646627328	31
2	983	104.9851142567	32
2	1004	106.381862132196	33
2	1015	108.753249541536	34
2	1117	121.024649636063	35
2	1121	121.312455369952	36
2	1147	125.06971258519	37
2	1171	127.59205828416	38
2	1194	130.105012616786	39
2	1217	133.871661198368	40
2	1227	134.849642713704	41
2	1237	135.88064853371	42
2	1263	139.594272810622	43
2	1271	140.151264112576	44
2	1299	145.864275677166	45
2	1307	146.430867026784	46
2	1319	148.012186654493	47
2	1333	149.083533004458	48
2	1338	149.269246015372	49
2	1404	158.9900728552	50
2	1438	163.317423295212	51
2	1456	166.77618281072	52
2	1504	172.806683489048	53
2	1539	177.551313585966	54
2	1614	187.040573779802	55
2	1617	187.37320566206	56
2	1680	196.667690340448	57
2	1682	196.990399472389	58
2	1693	197.67171708773	59
2	1768	208.284347322831	60
2	1908	228.56725136474	61
2	1950	234.345307825696	62
2	1956	234.486874748982	63
2	1959	235.144304407848	64
2	1987	239.398145689639	65
2	1994	240.624910739904	66
2	2030	247.64896730735	67
2	2042	248.720765039736	68
2	2049	249.24663870363	69
2	2052	250.200649923093	70
2	2101	258.210025233572	71
2	2118	259.463719482528	72
2	2151	265.743322396736	73
2	2186	271.146221099648	74
2	2191	272.022925310944	75
2	2228	278.302528225152	76
2	2230	278.359491063282	77
2	2308	290.861734053568	78
2	2341	296.167066008916	79
2	2347	297.141336967776	80
2	2367	300.911696105834	81
2	2372	301.327464995953	82
2	2434	310.9553427701	83
2	2442	311.965175198231	84
2	2466	315.9801457104	85
2	2468	316.625471279945	86
2	2495	320.881525674437	87
2	2499	321.25385419577	88
2	2526	325.571493231092	89
2	2544	329.379476687342	90
2	2611	341.85087704711	91
2	2631	343.613366978096	92
2	2666	352.14938847278	93
2	2668	352.637492516215	94
2	2682	353.657763195648	95
2	2732	362.591887365768	96
2	2748	366.216969024064	97
2	2848	385.055777766688	98
2	2857	386.315037850358	99
2	2876	391.220697581577	100
2	2880	391.335380680896	101
2	2916	398.138522739684	102
2	2943	403.894586509312	103
2	2977	410.17418942352	104
2	2984	411.744840772545	105
2	3050	424.23896845247	106
2	3076	429.01670872262	107
2	3078	429.380227044835	108
2	3100	434.53747987814	109
2	3103	435.292601080352	110
2	3126	440.193981044389	111
2	3135	441.57220399456	112
2	3137	441.890361756499	113
2	3172	447.995229110292	114
2	3196	454.131409822976	115
2	3265	466.315485607725	116
2	3300	472.384283029153	117
2	3304	472.9702185656	118
2	3344	479.77643093685	119
2	3380	486.03003700649	120
2	3407	490.696899982554	121
2	3411	491.809027308224	122
2	3432	496.32854843216	123
2	3480	504.930790273308	124
2	3514	510.755650293463	125
2	3548	516.927438965056	126
2	3644	533.398570854816	127
2	3660	537.031893185955	128
2	3667	537.52259413484	129
2	3701	542.887831048652	130
2	3726	547.82110556051	131
2	3729	548.325453536096	132
2	3763	555.560021489909	133
2	3802	561.866351436324	134
2	3856	572.065642242757	135
2	3859	572.353010455153	136
2	3882	576.100241727078	137
2	3895	579.556096511164	138
2	3898	579.723468107136	139
2	3929	585.589501920914	140
2	3932	586.003071021344	141
2	3935	586.644200181859	142
2	3996	599.31366268886	143
2	4032	604.841879763968	144
2	4037	605.888516460661	145
2	4054	609.61217411453	146
2	4060	611.121482678176	147
2	4089	617.401085592384	148
2	4095	618.80191259934	149
2	4128	623.680688506592	150
2	4150	629.9602914208	151
2	4178	633.035802890094	152
2	4193	637.58433480448	153
2	4199	637.780432987012	154
2	4219	642.52506308393	155
2	4246	647.269693180848	156
2	4274	652.014323277766	157
2	4299	656.770018436635	158
2	4320	661.35830599184	159
2	4349	666.24821356852	160
2	4352	667.637908906048	161
2	4377	670.992843665438	162
2	4400	675.737473762356	163
2	4433	681.70175409422	164
2	4449	685.226733956192	165
2	4452	686.476717648672	166
2	4490	692.75632056288	167
2	4535	702.29877694556	168
2	4562	706.5483981512	169
2	4611	717.874732219712	170
2	4650	724.15433513392	171
2	4699	733.19431122257	172
2	4701	733.761034216922	173
2	4722	737.41766502229	174
2	4747	742.993143876544	175
2	4750	743.49282264824	176
2	4799	752.69843659741	177
2	4813	755.55234970496	178
2	4858	764.08984549958	179
2	4893	770.630075700716	180
2	4907	774.391158447584	181
2	4931	779.115427659792	182
2	4965	784.86396599147	183
2	5009	794.353226185306	184
2	5012	794.98537977659	185
2	5089	809.256762961504	186
2	5208	830.907584675456	187
2	5244	837.054897057568	188
2	5461	875.011937832912	189
2	5477	878.895093234106	190
2	5489	879.75656792983	191
2	5545	889.245828123666	192
2	5560	893.703613817536	193
2	5588	898.735088317502	194
2	5603	901.572289955541	195
2	5691	918.56751688463	196
2	5694	918.822025474368	197
2	5710	922.458238802092	198
2	5769	931.947498995928	199
2	5790	936.692129092846	200
2	5792	936.793588654639	201
2	5796	937.660834216992	202
2	5846	946.926683398411	203
2	5871	950.9260193836	204
2	5891	955.670649480518	205
2	5970	969.904539771272	206
2	5973	970.06007401298	207
2	5991	974.64916986819	208
2	6016	980.35858543865	209
2	6029	982.215430519146	210
2	6061	988.883060158944	211
2	6063	989.602189103761	212
2	6113	998.37232035278	213
2	6137	1003.116950449698	214
2	6164	1007.861580546616	215
2	6178	1011.637846237317	216
2	6185	1012.606210643534	217
2	6188	1013.016069187488	218
2	6209	1017.350840740452	219
2	6247	1025.575275015904	220
2	6285	1031.851142567	221
2	6288	1031.854877930112	222
2	6311	1036.329361128124	223
2	6364	1045.81862132196	224
2	6390	1051.208214527709	225
2	6397	1052.44816541834	226
2	6419	1056.973289586944	227
2	6456	1063.506511438321	228
2	6458	1064.43543362263	229
2	6489	1070.977612352389	230
2	6515	1074.286401903468	231
2	6577	1086.781243406761	232
2	6612	1093.272684122021	233
2	6616	1093.64221112102	234
2	6619	1094.650907072192	235
2	6638	1098.009552388058	236
2	6674	1105.667060448456	237
2	6688	1107.498812581894	238
2	6714	1113.489715814816	239
2	6761	1123.212587756005	240
2	6770	1124.53774539803	241
2	6772	1125.420216850605	242
2	6788	1126.477332969566	243
2	6825	1135.625222509191	244
2	6878	1145.13476824937	245
2	6915	1151.167333300064	246
2	6939	1155.43327967504	247
2	7067	1178.668264035664	248
2	7085	1183.412894132582	249
2	7155	1196.375847334196	250
2	7158	1196.62732537772	251
2	7160	1196.807572331035	252
2	7189	1202.391414520254	253
2	7214	1207.683759527936	254
2	7270	1217.22434822906	255
2	7326	1226.52256827056	256
2	7332	1227.52285965473	257
2	7369	1235.60382519868	258
2	7374	1235.974491588922	259
2	7386	1239.081774098976	260
2	7410	1244.730560518276	261
2	7416	1245.093085392516	262
2	7422	1245.361377013184	263
2	7443	1250.80111946564	264
2	7449	1251.640979927392	265
2	7466	1254.582345586352	266
2	7483	1258.41839393174	267
2	7489	1259.32697568327	268
2	7542	1270.479788670016	269
2	7620	1284.521911693405	270
2	7642	1289.31392820875	271
2	7645	1289.31859741264	272
2	7678	1295.722316609117	273
2	7681	1296.921255145963	274
2	7710	1302.028646555532	275
2	7732	1306.779183205093	276
2	7746	1309.91095106009	277
2	7758	1311.517906749368	278
2	7774	1315.758810850396	279
2	7800	1320.71661198368	280
2	7867	1331.902909749697	281
2	7899	1339.555420726304	282
2	7901	1339.622732568616	283
2	7910	1339.985687330876	284
2	7939	1346.045345695667	285
2	7971	1352.11462655472	286
2	7990	1354.342015915758	287
2	8044	1364.673832383136	288
2	8081	1371.70201961411	289
2	8109	1377.579601388752	290
2	8111	1377.793421105676	291
2	8146	1383.51264112576	292
2	8182	1391.399739138537	293
2	8194	1392.29904246545	294
2	8290	1412.89606531679	295
2	8301	1414.9106556968	296
2	8303	1415.524365737602	297
2	8310	1415.899768881564	298
2	8397	1433.749464439424	299
2	8433	1440.029067353632	300
2	8510	1453.856809656908	301
2	8513	1454.09011101947	302
2	8563	1464.38862244514	303
2	8566	1465.147479010464	304
2	8607	1472.83533004458	305
2	8609	1473.037647335703	306
2	8631	1477.70668483888	307
2	8633	1479.059845024855	308
2	8654	1482.324590238416	309
2	8687	1488.429963539791	310
2	8729	1496.545493581504	311
2	8753	1500.939425054194	312
2	8759	1501.303110626088	313
2	8786	1506.047740723006	314
2	8810	1510.792370819924	315
2	8836	1515.88117957349	316
2	8854	1520.28163101376	317
2	8863	1521.663905238336	318
2	8883	1526.17969099916	319
2	8891	1527.462919467147	320
2	8894	1527.943508152544	321
2	8942	1537.698451551935	322
2	8980	1545.484666381707	323
2	8993	1546.782566429833	324
2	9033	1553.494041692186	325
2	9052	1557.874728284398	326
2	9054	1557.963299773413	327
2	9061	1558.238671789104	328
2	9104	1567.37373670184	329
2	9137	1572.472562079858	330
2	9161	1577.67224812751	331
2	9164	1578.180331466208	332
2	9237	1591.45108246753	333
2	9308	1606.196831323189	334
2	9325	1609.578346037248	335
2	9330	1610.065422912085	336
2	9355	1615.17423295212	337
2	9425	1629.16480525586	338
2	9434	1629.408123242874	339
2	9454	1634.69675769408	340
2	9492	1642.080313684131	341
2	9495	1642.127270398083	342
2	9507	1643.642013533628	343
2	9541	1649.7618281072	344
2	9562	1653.535566436704	345
2	9592	1660.06033953287	346
2	9611	1663.526099795757	347
2	9645	1670.35885095854	348
2	9665	1672.374375179328	349
2	9726	1686.203296517192	350
2	9760	1691.088314502808	351
2	9765	1692.593762034211	352
2	9812	1701.25438523555	353
2	9836	1705.322204793562	354
2	9849	1708.880493238627	355
2	9863	1710.06683489048	356
2	9868	1711.55289666122	357
2	9885	1714.811464987398	358
2	9888	1716.331595578784	359
2	9904	1719.556095084316	360
2	9918	1721.85140808689	361
2	9961	1729.045355278152	362
2	9978	1733.78998537507	363
2	9991	1735.170404321408	364
2	10095	1754.009213064032	365
2	10143	1763.04545378957	366
2	10158	1766.568418892448	367
2	10164	1767.002396053496	368
2	10186	1771.747026150414	369
2	10189	1772.848021806656	370
2	10208	1776.912083402932	371
2	10225	1780.871332602697	372
2	10253	1785.407227635072	373
2	10282	1790.725546538086	374
2	10287	1791.68683054928	375
2	10312	1795.470176635004	376
3	0	0	0
3	157	2	0
3	166	3.836821213337	1
3	167	3.836821213337	0
3	169	5.673642426674	1
3	181	6.744630096918	0
3	188	8.581451310255	1
3	197	10.116424127545	0
3	211	11.953245340882	1
3	214	12.29851142567	0
3	215	13.180982878245	1
3	217	13.326081407173	0
3	221	14.135332639007	1
3	225	15.16290262051	0
3	227	15.34823139263	1
3	233	15.968185122658	0
3	245	16.999723833847	1
3	255	17.713775174111	0
3	257	17.805006335995	1
3	259	18.070711504091	0
3	264	19.550596387448	1
3	265	19.907532717428	0
3	292	21.744353930765	1
3	298	22.59702285134	0
3	301	22.815341601009	1
3	303	23.022504845492	0
3	308	24.433844064677	1
3	312	24.859326058829	0
3	328	26.696147272166	1
3	330	26.859641571923	0
3	337	27.559971697927	1
3	340	28.69646278526	0
3	345	28.955232870169	1
3	351	29.530025167728	0
3	364	30.533283998597	1
3	366	30.696778298354	0
3	368	31.366846381065	1
3	370	31.776057907005	0
3	375	32.533599511691	1
3	382	32.89553427701	0
3	388	33.612879120342	1
3	397	34.732355490347	0
3	411	35.234835784377	1
3	416	36.569176703684	0
3	417	36.692188089778	1
3	422	37.049231891763	0
3	426	38.405997917021	1
3	429	38.8860531051	0
3	448	40.722874318437	1
3	451	41.514438698585	0
3	454	41.793861988681	1
3	457	42.208188477647	0
3	467	43.351259911922	1
3	468	44.045009690984	0
3	483	45.030866916017	1
3	486	45.881830904321	0
3	490	46.045325204078	1
3	499	47.718652117658	0
3	500	47.794041612793	1
3	505	48.797931726309	0
3	519	49.555473330995	1
3	522	50.634752939646	0
3	525	51.283122182517	1
3	534	52.236823313664	0
3	536	52.471574152983	1
3	548	54.073644527001	0
3	562	55.910465740338	1
3	569	57.556735383371	0
3	588	59.393556596708	1
3	594	60.353247441209	0
3	597	60.772382376353	1
3	604	62.190068654546	0
3	625	64.026889867883	1
3	630	64.79602914208	0
3	633	65.231008836233	1
3	638	65.517012473271	0
3	645	66.632850355417	1
3	650	67.353833686608	0
3	653	67.879537986023	1
3	662	68.424821356852	0
3	666	69.190654899945	1
3	671	70.261642570189	0
3	694	72.098463783526	1
3	697	72.580612759326	0
3	701	72.905282289095	1
3	717	74.417433972663	0
3	731	76.254255186	1
3	734	76.742419015526	0
3	755	78.579240228863	1
3	763	79.192056183833	0
3	768	79.750902764025	1
3	774	81.02887739717	0
3	775	81.485856018884	1
3	792	82.865698610507	0
3	806	84.702519823844	1
3	807	85.471659098041	0
3	821	87.308480311378	1
3	827	87.403341744524	0
3	832	88.253829194819	1
3	836	88.303807557311	0
3	842	89.240162957861	1
3	853	90.140628770648	0
3	865	91.977449983985	1
3	867	92.09096592125	0
3	878	93.024861358925	1
3	880	93.927787134587	0
3	881	93.984793054779	1
3	895	95.764608347924	0
3	917	97.601429561261	1
3	921	98.030864926457	0
3	928	99.867686139794	1
3	930	100.182020565346	0
3	931	100.209308035054	1
3	934	100.557225630088	0
3	958	102.018841778683	1
3	960	102.394046843425	0
3	971	103.602376100543	1
3	973	103.818926694886	0
3	974	104.230868056762	1
3	977	104.310467840665	0
3	990	105.655747908223	1
3	993	106.147289054002	0
3	1005	106.821935470037	1
3	1009	107.439512826974	0
3	1010	107.984110267339	1
3	1012	108.218683345533	0
3	1017	109.276334040311	1
3	1025	110.05550455887	0
3	1026	110.590070754873	1
3	1041	111.126492229114	0
3	1044	111.892325772207	1
3	1048	112.963313442451	0
3	1056	114.800134655788	1
3	1059	115.032852455744	0
3	1060	115.113786279836	1
3	1081	115.871122326032	0
3	1082	116.869673669081	1
3	1088	117.707943539369	0
3	1095	119.544764752706	1
3	1112	120.61575242295	0
3	1127	122.452573636287	1
3	1129	122.788059732698	0
3	1130	122.8614708494	1
3	1131	123.149276583289	0
3	1137	124.624880946035	1
3	1144	124.986097796626	0
3	1166	126.822919009963	1
3	1167	126.906533798527	0
3	1176	128.743355011864	1
3	1182	129.428879497497	0
3	1195	130.46233318556	1
3	1196	131.265700710834	0
3	1202	131.941833830123	1
3	1207	133.102521924171	0
3	1228	134.939343137508	1
3	1234	135.708482411705	0
3	1242	136.686463927041	1
3	1243	137.545303625042	0
3	1244	137.717469747047	1
3	1255	139.382124838379	0
3	1273	141.218946051716	1
3	1294	144.33890290754	0
3	1300	146.175724120877	1
3	1304	146.17915995938	0
3	1321	148.015981172717	1
3	1324	148.500473898854	0
3	1339	150.337295112191	1
3	1379	156.47767138505	0
3	1393	158.314492598387	1
3	1400	158.572793198294	0
3	1411	160.409614411631	1
3	1419	162.238706605659	0
3	1440	164.075527818996	1
3	1448	165.269675769408	0
3	1461	167.106496982745	1
3	1473	168.06205339213	0
3	1485	169.898874605467	1
3	1496	171.549278683616	0
3	1508	173.386099896953	1
3	1530	177.07469423639	0
3	1552	178.911515449727	1
3	1594	184.108484512032	0
3	1600	185.945305725369	1
3	1607	186.894679958037	0
3	1624	188.731501171374	1
3	1647	191.78520387672	0
3	1656	193.622025090057	1
3	1677	196.529833973638	0
3	1701	198.366655186975	1
3	1707	199.947575452552	0
3	1725	201.784396665889	1
3	1735	202.947293254656	0
3	1742	204.784114467993	1
3	1766	207.9702285134	0
3	1777	209.807049726737	1
3	1816	215.506499083072	0
3	1835	217.343320296409	1
3	1839	218.26873993907	0
3	1849	220.105561152407	1
3	1879	224.639710977121	0
3	1893	226.476532190458	1
3	1902	228.065704911488	0
3	1925	229.902526124825	1
3	1929	230.327267001065	0
3	1934	232.164088214402	1
3	1946	233.686253996854	0
3	1960	235.523075210191	1
3	1985	239.2315048459	0
3	1996	241.068326059237	1
3	2021	246.904513654112	0
3	2043	248.741334867449	1
3	2047	249.16427421608	0
3	2057	251.001095429417	1
3	2076	253.465395136654	0
3	2085	255.302216349991	1
3	2091	256.70907435544	0
3	2102	258.545895568777	1
3	2115	259.46278564175	0
3	2125	261.299606855087	1
3	2140	262.95465533049	0
3	2142	264.791476543827	1
3	2145	264.969280552075	0
3	2159	266.806101765412	1
3	2181	270.431930718943	0
3	2193	272.26875193228	1
3	2200	272.443915524326	0
3	2208	274.280736737663	1
3	2222	277.188545621244	0
3	2238	279.025366834581	1
3	2255	281.933175718162	0
3	2264	283.769996931499	1
3	2273	285.962729468664	0
3	2288	287.799550682001	1
3	2291	288.201720160465	0
3	2301	290.038541373802	1
3	2305	290.35831991876	0
3	2319	292.195141132097	1
3	2334	295.875993613327	0
3	2351	297.712814826664	1
3	2359	300.65683134443	0
3	2376	302.493652557767	1
3	2386	303.420939881984	0
3	2394	305.257761095321	1
3	2404	305.656326202752	0
3	2411	307.493147416089	1
3	2420	309.700542796192	0
3	2436	311.537364009529	1
3	2439	311.625976421623	0
3	2451	313.46279763496	1
3	2463	315.145586396588	0
3	2473	316.982407609925	1
3	2487	319.890216493506	0
3	2501	321.727037706843	1
3	2506	322.259748624608	0
3	2512	324.096569837945	1
3	2523	324.634846590424	0
3	2528	326.471667803761	1
3	2535	328.539351538816	0
3	2545	330.376172752153	1
3	2551	331.55236562144	0
3	2559	333.389186834777	1
3	2573	334.818954453024	0
3	2581	336.655775666361	1
3	2607	341.337920137974	0
3	2619	343.174741351311	1
3	2622	343.254926040046	0
3	2634	345.091747253383	1
3	2646	347.37816028144	0
3	2653	349.214981494777	1
3	2659	351.182486384385	0
3	2672	353.019307597722	1
3	2679	353.102627171932	0
3	2689	354.939448385269	1
3	2705	357.84725726885	0
3	2711	359.684078482187	1
3	2715	359.937366109856	0
3	2719	361.774187323193	1
3	2726	362.44789989845	0
3	2738	364.284721111787	1
3	2744	364.944454689085	0
3	2752	366.781275902422	1
3	2759	367.336517462686	0
3	2762	369.173338676023	1
3	2805	376.825777656522	0
3	2817	378.662598869859	1
3	2821	378.77617485248	0
3	2822	380.612996065817	1
3	2829	381.57040775344	0
3	2841	383.407228966777	1
3	2845	384.532204706823	0
3	2858	386.36902592016	1
3	2874	391.059667947276	0
3	2884	392.896489160613	1
3	2888	393.34343417546	0
3	2892	395.180255388797	1
3	2914	397.614983595104	0
3	2918	399.451804808441	1
3	2927	400.548928141112	0
3	2936	402.385749354449	1
3	2940	403.64194560113	0
3	2956	405.478766814467	1
3	2974	410.038188334948	0
3	2985	411.875009548285	1
3	3022	419.527448528784	0
3	3034	421.364269742121	1
3	3041	422.733395251936	0
3	3057	424.570216465273	1
3	3070	429.012998166144	0
3	3082	430.849819379481	1
3	3095	433.761338819538	0
3	3107	435.598160032875	1
3	3121	438.505968916456	0
3	3128	440.342790129793	1
3	3131	440.891637224128	0
3	3141	442.728458437465	1
3	3154	444.83599130381	0
3	3158	446.672812517147	1
3	3166	447.851806908768	0
3	3173	449.688628122105	1
3	3187	452.380923897937	0
3	3197	454.217745111274	1
3	3205	455.13450272948	0
3	3209	456.971323942817	1
3	3212	457.035736123429	0
3	3226	458.872557336766	1
3	3256	464.710009576291	0
3	3267	466.546830789628	1
3	3271	466.690615651392	0
3	3280	468.527436864729	1
3	3292	471.359358308005	0
3	3305	473.196179521342	1
3	3316	475.73152558082	0
3	3323	477.568346794157	1
3	3342	479.249821479808	0
3	3349	481.086642693145	1
3	3356	481.207639788718	0
3	3364	483.044461002055	1
3	3371	485.529424394016	0
3	3384	487.366245607353	1
3	3401	490.337792718073	0
3	3415	492.17461393141	1
3	3429	495.441530079472	0
3	3441	497.278351292809	1
3	3454	500.18616017639	0
3	3463	502.022981389727	1
3	3466	502.453627658285	0
3	3467	504.290448871622	1
3	3471	504.36823313664	0
3	3484	506.205054349977	1
3	3489	506.62705985783	0
3	3492	508.463881071167	1
3	3512	510.647836050848	0
3	3521	512.484657264185	1
3	3524	513.422772735478	0
3	3535	515.259593948815	1
3	3545	516.9255712835	0
3	3549	518.762392496837	1
3	3560	519.164680564062	0
3	3564	521.001501777399	1
3	3570	521.683346280231	0
3	3577	523.520167493568	1
3	3580	523.550052935692	0
3	3597	525.386874149029	1
3	3619	529.486644793472	0
3	3626	531.323466006809	1
3	3637	532.982918658472	0
3	3650	534.819739871809	1
3	3657	535.76624770768	0
3	3668	537.603068921017	1
3	3671	537.61560737848	0
3	3682	539.452428591817	1
3	3692	542.045850621888	0
3	3705	543.882671835225	1
3	3720	547.63246114557	0
3	3732	549.469282358907	1
3	3749	552.377091242488	0
3	3750	554.213912455825	1
3	3758	554.605056450304	0
3	3765	556.441877663641	1
3	3775	558.11961698618	0
3	3788	559.956438199517	1
3	3793	560.884659364512	0
3	3806	562.721480577849	1
3	3817	566.251530358345	0
3	3830	568.088351571682	1
3	3836	568.41812841185	0
3	3846	570.254949625187	1
3	3854	571.35561163016	0
3	3861	573.192432843497	1
3	3866	573.443865192928	0
3	3873	575.280686406265	1
3	3876	575.740747563379	0
3	3886	577.577568776716	1
3	3893	578.71663983752	0
3	3899	580.553461050857	1
3	3920	585.229964768413	0
3	3937	587.06678598175	1
3	3945	589.01515126319	0
3	3955	590.851972476527	1
3	3967	592.282673935552	0
3	3972	594.119495148889	1
3	3990	597.697853888312	0
3	3997	599.534675101649	1
3	4004	599.823392211668	0
3	4019	601.660213425005	1
3	4029	604.568022308586	0
3	4039	606.404843521923	1
3	4051	609.312652405504	0
3	4061	611.149473618841	1
3	4075	614.057282502422	0
3	4079	615.894103715759	1
3	4085	617.399926639954	0
3	4099	619.236747853291	1
3	4110	621.984842846761	0
3	4129	623.821664060098	1
3	4145	628.291172793176	0
3	4151	630.127994006513	1
3	4159	630.20919696587	0
3	4166	632.046018179207	1
3	4172	632.676050793583	0
3	4181	634.51287200692	1
3	4188	636.239894335008	0
3	4200	638.076715548345	1
3	4213	642.519497249216	0
3	4223	644.356318462553	1
3	4226	644.471721526023	0
3	4231	646.30854273936	1
3	4237	646.909876601134	0
3	4247	648.746697814471	1
3	4252	648.799100163424	0
3	4261	650.635921376761	1
3	4268	650.80621981721	0
3	4276	652.643041030547	1
3	4297	656.758953374684	0
3	4308	658.595774588021	1
3	4317	661.10473124288	0
3	4331	662.941552456217	1
3	4343	665.888311011202	0
3	4353	667.725132224539	1
3	4369	670.264883396904	0
3	4381	672.101704610241	1
3	4391	673.917511820256	0
3	4401	675.754333033593	1
3	4417	680.197114734464	0
3	4434	682.033935947801	1
3	4440	684.86674542127	0
3	4453	686.703566634607	1
3	4474	689.97136405311	0
3	4480	691.808185266447	1
3	4484	692.00026551989	0
3	4491	693.837086733227	1
3	4515	699.035923477088	0
3	4528	700.872744690425	1
3	4531	702.028772422488	0
3	4536	703.865593635825	1
3	4552	705.315526391296	0
3	4563	707.152347604633	1
3	4579	711.595129305504	0
3	4586	713.431950518841	1
3	4607	717.16548152716	0
3	4623	719.002302740497	1
3	4633	722.8957997969	0
3	4654	724.732621010237	1
3	4676	727.928404828454	0
3	4677	729.765226041791	1
3	4696	732.673034925372	0
3	4706	734.509856138709	1
3	4713	736.713540962336	0
3	4723	738.550362175673	1
3	4729	738.897549905647	0
3	4731	740.734371118984	1
3	4741	742.162295119208	0
3	4751	743.999116332545	1
3	4771	746.906925216126	0
3	4772	748.743746429463	1
3	4792	751.651555313044	0
3	4800	753.488376526381	1
3	4804	753.79133407391	0
3	4814	755.628155287247	1
3	4848	762.620700390237	0
3	4859	764.457521603574	1
3	4869	765.885445603798	0
3	4872	767.722266817135	1
3	4887	770.044548971218	0
3	4894	771.881370184555	1
3	4904	774.38835692525	0
3	4914	776.225178138587	1
3	4928	778.559669150056	0
3	4938	780.396490363393	1
3	4942	780.670761361792	0
3	4949	782.507582575129	1
3	4956	784.68686835092	0
3	4966	786.523689564257	1
3	4973	786.950364276	0
3	4977	788.787185489337	1
3	5003	793.229967190208	0
3	5013	795.066788403545	1
3	5035	799.509570104416	0
3	5047	801.346391317753	1
3	5050	801.794327309694	0
3	5052	803.631148523031	1
3	5059	803.842486379142	0
3	5071	805.679307592479	1
3	5087	808.58711647606	0
3	5094	810.423937689397	1
3	5105	812.068775932832	0
3	5117	813.905597146169	1
3	5127	815.58240262793	0
3	5128	817.419223841267	1
3	5138	818.34837884704	0
3	5147	820.185200060377	1
3	5159	822.821006766814	0
3	5175	824.657827980151	1
3	5179	825.8809140536	0
3	5195	827.717735266937	1
3	5202	829.44117112603	0
3	5209	831.277992339367	1
3	5217	832.27958332009	0
3	5228	834.116404533427	1
3	5235	836.17942547927	0
3	5248	838.016246692607	1
3	5284	843.466790503872	0
3	5285	845.303611717209	1
3	5295	846.47793690494	0
3	5304	848.314758118277	1
3	5308	848.626854758185	0
3	5318	850.463675971522	1
3	5321	850.928046509365	0
3	5331	852.764867722702	1
3	5352	856.097955672253	0
3	5366	857.93477688559	1
3	5372	860.417263714399	0
3	5382	862.254084927736	1
3	5387	862.305599246496	0
3	5396	864.142420459833	1
3	5409	865.522677639076	0
3	5416	867.359498852413	1
3	5423	868.585202160704	0
3	5436	870.422023374041	1
3	5439	871.649675116771	0
3	5451	873.486496330108	1
3	5455	874.864805074912	0
3	5462	876.701626288249	1
3	5472	877.37347118195	0
3	5478	879.210292395287	1
3	5481	879.395698124467	0
3	5496	881.232519337804	1
3	5510	884.501198026748	0
3	5516	886.338019240085	1
3	5530	887.67198260762	0
3	5546	889.508803820957	1
3	5557	893.178477517945	0
3	5567	895.015298731282	1
3	5582	897.97049403329	0
3	5589	899.807315246627	1
3	5596	899.983216731744	0
3	5604	901.820037945081	1
3	5623	906.262819645952	0
3	5630	908.099640859289	1
3	5640	908.26900545896	0
3	5647	910.105826672297	1
3	5654	912.54242256016	0
3	5667	914.379243773497	1
3	5685	917.713608705174	0
3	5700	919.550429918511	1
3	5704	922.09717554712	0
3	5719	923.933996760457	1
3	5724	925.101628388576	0
3	5728	926.938449601913	1
3	5744	928.8660283103	0
3	5754	930.702849523637	1
3	5760	931.586392752154	0
3	5773	933.423213965491	1
3	5780	936.094112734779	0
3	5797	937.930933948116	1
3	5804	939.16453973597	0
3	5808	941.001360949307	1
3	5818	941.436759189764	0
3	5822	943.273580403101	1
3	5844	946.181389286682	0
3	5849	948.018210500019	1
3	5862	950.220040045408	0
3	5872	952.056861258745	1
3	5878	954.108949631021	0
3	5892	955.945770844358	1
3	5899	956.499642959616	0
3	5903	958.336464172953	1
3	5910	959.76156258731	0
3	5920	961.598383800647	1
3	5927	962.742232018744	0
3	5940	964.579053232081	1
3	5950	965.159909674354	0
3	5953	966.996730887691	1
3	5964	969.058848788032	0
3	5976	970.895670001369	1
3	5985	974.287870174807	0
3	5995	976.124691388144	1
3	6013	979.393799965108	0
3	6020	981.230621178445	1
3	6024	981.618054616448	0
3	6031	983.454875829785	1
3	6038	984.138430062026	0
3	6042	985.975251275363	1
3	6049	987.897657530656	0
3	6065	989.734478743993	1
3	6071	990.65709686432	0
3	6081	992.493918077657	1
3	6107	998.275187088994	0
3	6120	1000.112008302331	1
3	6124	1000.456863359072	0
3	6128	1002.293684572409	1
3	6131	1002.755521789909	0
3	6144	1004.592343003246	1
3	6152	1006.73646627328	0
3	6165	1008.573287486617	1
3	6176	1011.25411971566	0
3	6189	1013.090940928997	1
3	6195	1013.623733994718	0
3	6199	1015.460555208055	1
3	6202	1016.462146188778	0
3	6213	1018.298967402115	1
3	6220	1019.295672101696	0
3	6221	1021.132493315033	1
3	6225	1021.55263114133	0
3	6241	1023.389452354667	1
3	6244	1024.02915225129	0
3	6248	1025.865973464627	1
3	6261	1026.840100934288	0
3	6267	1028.676922147625	1
3	6282	1031.584731031206	0
3	6295	1033.421552244543	1
3	6302	1035.967782007528	0
3	6312	1037.804603220865	1
3	6319	1038.13448084432	0
3	6320	1039.971302057657	1
3	6344	1042.14965399267	0
3	6345	1043.986475206007	1
3	6349	1044.414083758528	0
3	6365	1046.250904971865	1
3	6371	1048.157964532597	0
3	6378	1049.994785745934	1
3	6388	1050.693686672736	0
3	6398	1052.530507886073	1
3	6414	1055.307881515796	0
3	6420	1057.144702729133	1
3	6436	1060.052511612714	0
3	6444	1061.889332826051	1
3	6451	1063.252892501152	0
3	6468	1065.089713714489	1
3	6481	1069.53249541536	0
3	6494	1071.369316628697	1
3	6506	1073.04518826968	0
3	6516	1074.882009483017	1
3	6520	1075.812098329568	0
3	6527	1077.648919542905	1
3	6536	1079.031032000386	0
3	6546	1080.867853213723	1
3	6553	1082.091701243776	0
3	6566	1083.928522457113	1
3	6575	1086.529331796907	0
3	6582	1088.366153010244	1
3	6586	1088.371304157984	0
3	6596	1090.208125371321	1
3	6610	1093.26492229114	0
3	6623	1095.101743504477	1
3	6631	1097.042017443829	0
3	6639	1098.878838657166	1
3	6664	1103.94072254669	0
3	6675	1105.777543760027	1
3	6682	1107.210112900608	0
3	6694	1109.046934113945	1
3	6708	1112.243442678812	0
3	6717	1114.080263892149	1
3	6721	1114.23923397236	0
3	6727	1116.076055185697	1
3	6734	1116.98807277573	0
3	6741	1118.824893989067	1
3	6745	1119.769318729024	0
3	6746	1121.606139942361	1
3	6753	1121.732702872648	0
3	6763	1123.569524085985	1
3	6767	1123.808817825604	0
3	6774	1125.645639038941	1
3	6779	1126.048921643232	0
3	6792	1127.885742856569	1
3	6810	1132.32852455744	0
3	6817	1134.165345770777	1
3	6823	1135.604562660385	0
3	6836	1137.441383873722	1
3	6847	1138.608127471648	0
3	6853	1140.444948684985	1
3	6872	1144.887730385856	0
3	6895	1146.724551599193	1
3	6912	1150.200483454156	0
3	6916	1152.037304667493	1
3	6936	1154.945113551074	0
3	6940	1156.781934764411	1
3	6948	1157.446936214272	0
3	6954	1159.283757427609	1
3	6961	1159.689743647992	0
3	6967	1161.526564861329	1
3	6974	1163.72653912848	0
3	6984	1165.563360341817	1
3	6988	1165.73179110071	0
3	6994	1167.568612314047	1
3	7012	1169.179003841828	0
3	7018	1171.015825055165	1
3	7031	1173.923633938746	0
3	7037	1175.760455152083	1
3	7042	1176.03030252638	0
3	7054	1177.867123739717	1
3	7061	1178.234089957048	0
3	7071	1180.070911170385	1
3	7079	1182.565347871104	0
3	7092	1184.402169084441	1
3	7103	1186.32881395205	0
3	7117	1188.165635165387	1
3	7122	1188.844950785312	0
3	7129	1190.681771998649	1
3	7139	1192.902154326418	0
3	7140	1194.738975539755	1
3	7150	1195.12455369952	0
3	7164	1196.961374912857	1
3	7183	1201.404156613728	0
3	7193	1203.240977827065	1
3	7205	1206.92583680339	0
3	7220	1208.762658016727	1
3	7238	1211.88067471409	0
3	7245	1213.717495927427	1
3	7249	1213.963362442144	0
3	7253	1215.800183655481	1
3	7266	1216.788807956767	0
3	7282	1218.625629170104	1
3	7292	1221.369934907926	0
3	7304	1223.206756121263	1
3	7323	1226.114565004844	0
3	7335	1227.951386218181	1
3	7345	1230.859195101762	0
3	7351	1232.696016315099	1
3	7355	1232.802171184768	0
3	7359	1234.638992398105	1
3	7362	1235.178939595345	0
3	7376	1237.015760808682	1
3	7383	1237.8213710804	0
3	7387	1239.658192293737	1
3	7397	1240.348455295598	0
3	7401	1242.185276508935	1
3	7404	1243.648765041784	0
3	7423	1245.485586255121	1
3	7441	1249.837715489434	0
3	7450	1251.674536702771	1
3	7459	1254.3646232275	0
3	7470	1256.201444440837	1
3	7477	1257.9205828416	0
3	7490	1259.757404054937	1
3	7493	1259.871998154214	0
3	7499	1261.708819367551	1
3	7505	1263.708994928344	0
3	7518	1265.545816141681	1
3	7533	1268.71690535741	0
3	7545	1270.553726570747	1
3	7583	1276.759391584224	0
3	7593	1278.596212797561	1
3	7609	1283.038994498432	0
3	7621	1284.875815711769	1
3	7639	1287.794756264778	0
3	7646	1289.631577478115	1
3	7676	1295.598200326848	0
3	7688	1297.435021540185	1
3	7704	1301.877803241056	0
3	7717	1303.714624454393	1
3	7730	1306.77327665245	0
3	7740	1308.610097865787	1
3	7743	1309.761830941371	0
3	7759	1311.598652154708	1
3	7772	1314.437009069472	0
3	7784	1316.273830282809	1
3	7797	1320.20946248576	0
3	7815	1322.046283699097	1
3	7857	1330.49642713704	0
3	7869	1332.333248350377	1
3	7895	1338.423987481379	0
3	7911	1340.260808694716	1
3	7915	1340.8064853371	0
3	7919	1342.643306550437	1
3	7937	1345.835023640512	0
3	7940	1347.671844853849	1
3	7950	1349.11194977365	0
3	7957	1350.948770986987	1
3	7962	1351.10499676277	0
3	7975	1352.941817976107	1
3	7988	1354.21957762163	0
3	7992	1356.056398834967	1
3	8011	1358.964207718548	0
3	8018	1360.801028931885	1
3	8023	1361.40350818844	0
3	8027	1363.240329401777	1
3	8035	1363.708837815466	0
3	8047	1365.545659028803	1
3	8058	1368.090384183718	0
3	8065	1369.927205397055	1
3	8077	1371.636398159805	0
3	8097	1373.473219373142	1
3	8107	1377.233038211552	0
3	8118	1379.069859424889	1
3	8134	1382.00053103978	0
3	8147	1383.837352253117	1
3	8155	1387.068818593786	0
3	8165	1388.905639807123	1
3	8174	1389.792244039968	0
3	8183	1391.629065253305	1
3	8191	1392.176618396974	0
3	8195	1394.013439610311	1
3	8259	1406.410508687728	0
3	8265	1408.247329901065	1
3	8269	1408.631052782592	0
3	8273	1410.467873995929	1
3	8284	1411.155138784646	0
3	8291	1412.991959997983	1
3	8297	1414.338069032067	0
3	8311	1416.174890245404	1
3	8329	1421.190258611008	0
3	8341	1423.027079824345	1
3	8346	1423.19457674246	0
3	8350	1425.031397955797	1
3	8367	1427.469861525216	0
3	8373	1429.306682738553	1
3	8394	1433.49308816813	0
3	8409	1435.329909381467	1
3	8412	1435.505601363334	0
3	8420	1437.342422576671	1
3	8427	1439.622919366154	0
3	8437	1441.459740579491	1
3	8463	1446.30867026784	0
3	8464	1448.145491481177	1
3	8486	1450.360450614268	0
3	8490	1452.197271827605	1
3	8498	1452.588273182048	0
3	8514	1454.425094395385	1
3	8524	1458.237947631541	0
3	8538	1460.074768844878	1
3	8557	1463.346069850744	0
3	8567	1465.182891064081	1
3	8571	1466.202695174782	0
3	8579	1468.039516388119	1
3	8586	1468.090699947662	0
3	8591	1469.927521160999	1
3	8595	1471.427081924672	0
3	8610	1473.263903138009	1
3	8628	1477.579960141498	0
3	8638	1479.416781354835	1
3	8648	1482.108526024277	0
3	8658	1483.945347237614	1
3	8666	1484.98564529648	0
3	8673	1486.822466509817	1
3	8685	1487.069220335334	0
3	8692	1488.906041548671	1
3	8702	1490.265890667296	0
3	8714	1492.102711880633	1
3	8724	1495.28415672215	0
3	8736	1497.120977935487	1
3	8751	1500.250283401425	0
3	8760	1502.087104614762	1
3	8777	1505.58266814782	0
3	8790	1507.419489361157	1
3	8799	1509.10469940992	0
3	8811	1510.941520623257	1
3	8824	1515.384302324128	0
3	8842	1517.221123537465	1
3	8848	1519.917859464262	0
3	8864	1521.754680677599	1
3	8874	1525.026261110678	0
3	8884	1526.863082324015	1
3	8888	1527.013168605153	0
3	8895	1528.84998981849	1
3	8905	1529.770891207596	0
3	8911	1531.607712420933	1
3	8924	1534.515521304514	0
3	8931	1536.352342517851	1
3	8935	1536.47820242483	0
3	8944	1538.315023638167	1
3	8961	1540.50271398096	0
3	8965	1542.339535194297	1
3	8972	1544.00478149835	0
3	8984	1545.841602711687	1
3	8991	1546.782316895168	0
3	9003	1548.619138108505	1
3	9010	1548.749411595268	0
3	9014	1550.586232808605	1
3	9021	1553.061919809376	0
3	9036	1554.898741022713	1
3	9047	1557.07522527617	0
3	9062	1558.912046489507	1
3	9093	1565.621125637792	0
3	9105	1567.457946851129	1
3	9128	1571.900728552	0
3	9140	1573.737549765337	1
3	9158	1577.217192176776	0
3	9165	1579.054013390113	1
3	9191	1584.459934380416	0
3	9195	1586.296755593753	1
3	9214	1588.186337253969	0
3	9222	1590.023158467306	1
3	9231	1590.959070287165	0
3	9241	1592.795891500502	1
3	9271	1598.26927097885	0
3	9279	1600.106092192187	1
3	9295	1603.29874312304	0
3	9296	1605.135564336377	1
3	9303	1605.684972758284	0
3	9315	1607.521793971621	1
3	9322	1608.56778240452	0
3	9331	1610.404603617857	1
3	9339	1610.429602855202	0
3	9343	1612.266424068539	1
3	9349	1613.6362670086	0
3	9356	1615.473088221937	1
3	9360	1615.857948951456	0
3	9367	1617.694770164793	1
3	9391	1622.137551865664	0
3	9395	1623.974373079001	1
3	9419	1628.417154779872	0
3	9438	1630.253975993209	1
3	9451	1634.152753339792	0
3	9462	1635.989574553129	1
3	9490	1640.976360608288	0
3	9497	1642.813181821625	1
3	9501	1643.277683129704	0
3	9514	1645.114504343041	1
3	9533	1648.386643630546	0
3	9542	1650.223464843883	1
3	9548	1652.766900334738	0
3	9563	1654.603721548075	1
3	9578	1657.875903824382	0
3	9585	1659.712725037719	1
3	9589	1659.815169350912	0
3	9593	1661.651990564249	1
3	9600	1662.256117539772	0
3	9612	1664.092938753109	1
3	9634	1667.365164018218	0
3	9638	1669.201985231555	1
3	9641	1670.183677884111	0
3	9655	1672.020499097448	1
3	9662	1672.109794115136	0
3	9668	1673.946615328473	1
3	9678	1676.661500935962	0
3	9686	1678.498322149299	1
3	9693	1678.653978093536	0
3	9700	1680.490799306873	1
3	9712	1681.599054308972	0
3	9716	1683.435875522309	1
3	9724	1684.933581007744	0
3	9736	1686.770402221081	1
3	9754	1690.95587380988	0
3	9767	1692.792695023217	1
3	9779	1695.468377757391	0
3	9786	1697.305198970728	1
3	9793	1697.49278683616	0
3	9802	1699.329608049497	1
3	9809	1700.577574696644	0
3	9819	1702.414395909981	1
3	9827	1703.772389750368	0
3	9837	1705.609210963705	1
3	9846	1707.35859474741	0
3	9850	1709.195415960747	1
3	9857	1710.051992664576	0
3	9872	1711.888813877913	1
3	9878	1714.741534827561	0
3	9892	1716.578356040898	1
3	9898	1717.951371927201	0
3	9905	1719.788193140538	1
3	9914	1721.232975542821	0
3	9922	1723.069796756158	1
3	9929	1724.300725181234	0
3	9939	1726.137546394571	1
3	9952	1728.8908014072	0
3	9965	1730.727622620537	1
3	9969	1732.14991951256	0
3	9979	1733.986740725897	1
3	9988	1735.005438563746	0
3	9999	1736.842259777083	1
3	10002	1737.843850757806	0
3	10013	1739.680671971143	1
3	10023	1741.450007235616	0
3	10035	1743.286828448953	1
3	10051	1747.729610149824	0
3	10069	1749.566431363161	1
3	10072	1749.69944733721	0
3	10076	1751.536268550547	1
3	10086	1752.7469423639	0
3	10096	1754.583763577237	1
3	10109	1757.51313585966	0
3	10119	1759.349957072997	1
3	10129	1760.28881597824	0
3	10133	1762.125637191577	1
3	10140	1762.257765956578	0
3	10147	1764.094587169915	1
3	10151	1765.440696203999	0
3	10168	1767.277517417336	1
3	10179	1771.257961055433	0
3	10190	1773.09478226877	1
3	10206	1776.491656247332	0
3	10209	1778.328477460669	1
3	10217	1779.127624720864	0
3	10226	1780.964445934201	1
3	10242	1783.64247664091	0
3	10254	1785.479297854247	1
3	10272	1790.096769798057	0
3	10288	1791.933591011394	1
3	10301	1793.94098806658	0
3	10313	1795.777809279917	1
3	10323	1797.966433463488	0
3	10329	1799.803254676825	1
3	10332	1799.849767012765	0
4	0	0	0
4	164	3.786706860654	1
4	168	3.836821213337	2
4	216	13.180982878245	3
4	230	15.606318032861	4
4	246	16.999723833847	5
4	285	21.058428869901	6
4	302	22.815341601009	7
4	311	24.677196721435	8
4	343	28.859957085017	9
4	376	32.533599511691	10
4	425	38.283514754296	11
4	461	42.818954098583	12
4	503	48.045640717172	13
4	528	51.882777443603	14
4	537	52.471574152983	15
4	565	56.425272131444	16
4	637	65.496150820018	17
4	648	67.231324349327	18
4	670	70.031590164305	19
4	725	74.905597802189	20
4	884	94.091281434344	21
4	989	105.602691613637	22
4	1021	109.439828340068	23
4	1068	115.385983607175	24
4	1087	117.11410179293	25
4	1098	119.921422951462	26
4	1232	135.444907860835	27
4	1240	136.299785425085	28
4	1348	151.669498361471	29
4	1376	156.204937705758	30
4	1394	158.314492598387	31
4	1423	162.374622793302	32
4	1432	163.159742510102	33
4	1451	165.275816394332	34
4	1483	169.811255738619	35
4	1506	173.147121761064	36
4	1546	178.508289415826	37
4	1582	183.41757377148	38
4	1622	187.953013115767	39
4	1625	188.731501171374	40
4	1660	193.85683632155	41
4	1696	197.693973047981	42
4	1802	213.042519953705	43
4	1808	215.165649181489	44
4	1926	229.902526124825	45
4	1961	235.523075210191	46
4	1966	236.065340312291	47
4	1971	237.842845902924	48
4	2006	243.739613765153	49
4	2024	246.913724591498	50
4	2064	251.449163935785	51
4	2079	254.970823428974	52
4	2083	255.251023944446	53
4	2086	255.302216349991	54
4	2089	255.984603280072	55
4	2134	262.925297397308	56
4	2158	266.762434123739	57
4	2184	270.59957085017	58
4	2205	274.12636065722	59
4	2262	283.197239345794	60
4	2271	285.948117755894	61
4	2276	286.368838000014	62
4	2287	287.732678690081	63
4	2324	292.268118034368	64
4	2332	293.622391208756	65
4	2370	301.296664661618	66
4	2429	310.409875411516	67
4	2457	314.945314755803	68
4	2474	316.982407609925	69
4	2492	320.685520832567	70
4	2511	324.016193444377	71
4	2558	333.087072132951	72
4	2586	337.622511477238	73
4	2600	339.668031925928	74
4	2614	342.157950821525	75
4	2657	351.179442105221	76
4	2696	355.764268854386	77
4	2720	361.774187323193	78
4	2739	364.284721111787	79
4	2742	364.83514754296	80
4	2770	370.365125737376	81
4	2818	378.662598869859	82
4	2835	382.976904920108	83
4	2891	393.387946095962	84
4	2893	395.180255388797	85
4	2905	396.583222952969	86
4	2908	397.225082822393	87
4	2937	402.385749354449	88
4	2968	408.736493001686	89
4	2980	410.18954098583	90
4	3007	416.410766454548	91
4	3012	418.240499198382	92
4	3016	419.260419674404	93
4	3067	428.331298362978	94
4	3089	432.866737707265	95
4	3115	437.402177051552	96
4	3129	440.342790129793	97
4	3183	451.008495084413	98
4	3208	455.5439344287	99
4	3230	460.079373772987	100
4	3238	462.197719597838	101
4	3248	462.45640717172	102
4	3254	464.614813117274	103
4	3287	469.150252461561	104
4	3290	470.130680624582	105
4	3313	473.967817351013	106
4	3328	477.804954077444	107
4	3333	478.221131150135	108
4	3363	482.756570494422	109
4	3365	483.044461002055	110
4	3383	487.292009838709	111
4	3438	496.990637709599	112
4	3447	499.875337083086	113
4	3464	502.022981389727	114
4	3485	506.205054349977	115
4	3539	516.176321341754	116
4	3594	524.993748739918	117
4	3598	525.386874149029	118
4	3609	528.110963937292	119
4	3709	546.25272131444	120
4	3741	550.788160658727	121
4	3755	554.547688606064	122
4	3761	555.323600003014	123
4	3810	564.394478691588	124
4	3831	568.088351571682	125
4	3839	568.929918035875	126
4	3841	568.950969139374	127
4	3845	569.896235511788	128
4	3847	570.254949625187	129
4	3872	573.733372238219	130
4	3887	577.577568776716	131
4	3909	581.407645691081	132
4	3912	582.536236068736	133
4	3970	592.919055870374	134
4	4013	600.677993445884	135
4	4020	601.660213425005	136
4	4035	605.213432790171	137
4	4040	606.404843521923	138
4	4083	615.94187622896	139
4	4098	618.819750823032	140
4	4136	627.453286408253	141
4	4139	627.890629511606	142
4	4170	632.426068855893	143
4	4182	634.51287200692	144
4	4191	636.96150820018	145
4	4230	646.032386888754	146
4	4277	652.643041030547	147
4	4281	654.31324349327	148
4	4361	668.709583610189	149
4	4367	669.661790398994	150
4	4443	685.010337304718	151
4	4454	686.703566634607	152
4	4467	689.050646569943	153
4	4477	691.386780331624	154
4	4481	691.808185266447	155
4	4492	693.837086733227	156
4	4549	704.993098364485	157
4	4627	719.544567842597	158
4	4629	719.747740381391	159
4	4689	732.220644908782	160
4	4735	741.276613118781	161
4	4752	743.999116332545	162
4	4780	750.241661654045	163
4	4785	751.059453651406	164
4	4832	759.418370495929	165
4	4863	765.590208559769	166
4	4873	767.722266817135	167
4	4884	769.89826239403	168
4	4924	777.560127873077	169
4	4970	786.631006561651	170
4	4990	791.166445905938	171
4	5018	795.701885250225	172
4	5041	800.237324594512	173
4	5072	805.679307592479	174
4	5077	807.575879879278	175
4	5148	820.185200060377	176
4	5176	824.657827980151	177
4	5181	826.414688621902	178
4	5185	826.984396182665	179
4	5258	838.973894450318	180
4	5289	845.591718037382	181
4	5292	846.17007981482	182
4	5329	851.533100278734	183
4	5332	852.764867722702	184
4	5335	853.844353267682	185
4	5338	854.662596725956	186
4	5361	857.812703192942	187
4	5370	859.198036070243	188
4	5450	873.030036899837	189
4	5466	876.867173626268	190
4	5469	877.339793447391	191
4	5501	881.875232791678	192
4	5503	882.931114849774	193
4	5533	888.378583805561	194
4	5538	889.210717763982	195
4	5547	889.508803820957	196
4	5579	896.052857258423	197
4	5593	899.889993984854	198
4	5648	910.105826672297	199
4	5771	933.167938163438	200
4	5809	941.001360949307	201
4	5830	945.371383611696	202
4	5834	945.727143991854	203
4	5859	949.906822955983	204
4	5907	958.977701644557	205
4	5934	963.513140988844	206
4	5944	965.121318334181	207
4	6001	976.632728513474	208
4	6004	977.119459021705	209
4	6006	977.125158562894	210
4	6021	981.230621178445	211
4	6027	981.654898365992	212
4	6046	986.190337710279	213
4	6082	992.493918077657	214
4	6101	995.963967305518	215
4	6119	999.79665574314	216
4	6140	1003.492685598491	217
4	6143	1004.332095087427	218
4	6145	1004.592343003246	219
4	6166	1008.573287486617	220
4	6170	1008.867534431714	221
4	6173	1011.166959051353	222
4	6190	1013.090940928997	223
4	6193	1013.402973776001	224
4	6217	1018.841232504215	225
4	6240	1022.678369230646	226
4	6268	1028.676922147625	227
4	6276	1031.544731153149	228
4	6305	1036.080170497436	229
4	6313	1037.804603220865	230
4	6316	1038.02691613637	231
4	6346	1043.986475206007	232
4	6352	1045.15104918601	233
4	6358	1045.701189589232	234
4	6366	1046.250904971865	235
4	6405	1054.221927874584	236
4	6439	1061.049736494956	237
4	6445	1061.889332826051	238
4	6472	1067.828245907445	239
4	6517	1074.882009483017	240
4	6523	1076.39828340068	241
4	6550	1081.434563940306	242
4	6601	1090.50544262888	243
4	6604	1091.746830306404	244
4	6624	1095.101743504477	245
4	6627	1095.583967032835	246
4	6651	1102.717216847054	247
4	6667	1104.111760661741	248
4	6724	1114.76965066499	249
4	6740	1118.606787391421	250
4	6742	1118.824893989067	251
4	6756	1122.253518038889	252
4	6805	1131.324396727463	253
4	6829	1135.85983607175	254
4	6868	1141.832780288801	255
4	6875	1144.930714760324	256
4	6995	1167.568612314047	257
4	7058	1178.07245181755	258
4	7141	1194.738975539755	259
4	7144	1194.820547547481	260
4	7197	1203.891426236055	261
4	7202	1206.860932099334	262
4	7221	1208.762658016727	263
4	7231	1210.901241364559	264
4	7252	1214.535205552196	265
4	7254	1215.800183655481	266
4	7294	1222.029672217006	267
4	7298	1222.033183613203	268
4	7301	1222.209479005058	269
4	7348	1231.104062301777	270
4	7352	1232.696016315099	271
4	7372	1235.639501646064	272
4	7388	1239.658192293737	273
4	7391	1240.174940990351	274
4	7400	1241.395162637213	275
4	7402	1242.185276508935	276
4	7430	1249.069436090075	277
4	7433	1249.245819678925	278
4	7474	1256.743709542937	279
4	7480	1258.316698367499	280
4	7519	1265.545816141681	281
4	7527	1267.387577056073	282
4	7530	1268.25511972223	283
4	7556	1272.295428987455	284
4	7603	1280.993895088934	285
4	7668	1294.600213121795	286
4	7739	1308.206531154656	287
4	7741	1308.610097865787	288
4	7752	1310.463623712971	289
4	7760	1311.598652154708	290
4	7764	1312.741970498943	291
4	7816	1322.046283699097	292
4	7832	1326.015343157489	293
4	7836	1326.348288531804	294
4	7844	1328.782921758542	295
4	7863	1330.883727876091	296
4	7876	1333.486444071557	297
4	7878	1335.06252467275	298
4	7893	1337.323580797988	299
4	7918	1341.160717524419	300
4	7920	1342.643306550437	301
4	7948	1349.025485253239	302
4	8013	1360.180936329582	303
4	8026	1362.6318032861	304
4	8053	1367.167242630387	305
4	8089	1372.740142157998	306
4	8101	1375.694948062298	307
4	8104	1376.238121318961	308
4	8143	1383.36922151516	309
4	8148	1383.837352253117	310
4	8166	1388.905639807123	311
4	8180	1391.043494968022	312
4	8224	1398.915318040396	313
4	8239	1402.554905147315	314
4	8272	1410.229178600177	315
4	8274	1410.467873995929	316
4	8292	1412.991959997983	317
4	8361	1425.577725505901	318
4	8364	1426.127954106118	319
4	8386	1430.663393450405	320
4	8408	1435.198832794692	321
4	8410	1435.329909381467	322
4	8430	1439.734272138979	323
4	8436	1440.926272411625	324
4	8459	1444.96658167685	325
4	8465	1448.145491481177	326
4	8469	1448.600545864487	327
4	8475	1448.805150827553	328
4	8495	1452.437682590918	329
4	8501	1453.34059017184	330
4	8515	1454.425094395385	331
4	8519	1456.274819317349	332
4	8560	1463.949092770211	333
4	8578	1467.786229496642	334
4	8598	1471.482347548988	335
4	8601	1471.623366223073	336
4	8669	1485.088665581849	337
4	8671	1485.772994613742	338
4	8737	1497.120977935487	339
4	8746	1498.48332330809	340
4	8771	1503.230422958997	341
4	8773	1504.611803356366	342
4	8791	1507.419489361157	343
4	8839	1516.836740991858	344
4	8860	1521.506143666676	345
4	8880	1525.907619680432	346
4	8929	1536.009817927406	347
4	8985	1545.841602711687	348
4	9018	1552.203237478124	349
4	9024	1553.120255746154	350
4	9043	1556.243546743349	351
4	9078	1562.191134434728	352
4	9096	1566.726573779015	353
4	9122	1571.262013123302	354
4	9125	1571.388921110279	355
4	9169	1579.063194563141	356
4	9172	1580.332891811876	357
4	9196	1586.296755593753	358
4	9242	1592.795891500502	359
4	9292	1603.010088533311	360
4	9342	1612.080967221885	361
4	9344	1612.266424068539	362
4	9366	1617.434561827451	363
4	9437	1630.222724599033	364
4	9439	1630.253975993209	365
4	9457	1634.75816394332	366
4	9468	1636.8234179984	367
4	9515	1645.114504343041	368
4	9564	1654.603721548075	369
4	9594	1661.651990564249	370
4	9622	1666.506239353329	371
4	9636	1667.881479125774	372
4	9639	1669.201985231555	373
4	9715	1682.665886176778	374
4	9751	1690.34015962964	375
4	9774	1693.718875419051	376
4	9844	1707.325193451912	377
4	9876	1713.362979988226	378
4	9891	1716.396072140486	379
4	9893	1716.578356040898	380
4	9896	1717.200116714657	381
4	9923	1723.069796756158	382
4	9931	1724.397905353646	383
4	9964	1730.002390173347	384
4	9972	1732.548663620381	385
4	9980	1733.986740725897	386
4	10044	1744.263246338468	387
4	10054	1747.897210526105	388
4	10063	1748.144147550495	389
4	10083	1752.679586894782	390
4	10103	1757.215026239069	391
4	10125	1759.611793244192	392
4	10146	1763.245757431829	393
4	10177	1770.920030884691	394
4	10191	1773.09478226877	395
4	10197	1774.757167611122	396
4	10266	1786.471750329209	397
4	10270	1788.963101649078	398
4	10276	1790.105714516846	399
4	10294	1793.356743845903	400
4	10320	1797.779987969708	401
5	0	0	0
5	162	2	0
5	182	8.090739131002	1
5	193	9.877445991656	0
5	196	9.927560344339	1
5	200	11.070878688574	0
5	232	15.968185122658	1
5	243	16.34591268907	0
5	248	17.161617819576	1
5	252	17.348546905724	0
5	262	19.271722009247	1
5	270	20.649944959418	0
5	291	21.697057163863	1
5	294	22.436651820072	0
5	304	23.090462964849	1
5	305	23.439286036726	0
5	329	26.74068409042	1
5	331	26.929547873626	0
5	336	27.149168000903	1
5	339	28.527390951074	0
5	344	28.906080732011	1
5	348	29.212636065722	0
5	350	29.530025167728	1
5	367	30.767935852437	0
5	383	33.020287004628	1
5	384	33.209150787834	0
5	396	34.618130082076	1
5	403	34.950696216019	0
5	412	35.303375196724	1
5	418	36.858674983439	0
5	427	38.624338642693	1
5	430	39.299889918836	0
5	431	39.488753702042	1
5	450	41.041435347021	0
5	462	42.949414114441	1
5	473	44.374253885298	0
5	484	45.390629049838	1
5	492	47.132174478023	0
5	507	48.909693229585	1
5	521	50.4649930163	0
5	539	53.222913609025	1
5	549	54.136379848174	0
5	566	56.555732147302	1
5	571	57.973516574605	0
5	572	58.327562444666	1
5	577	58.562313283985	0
5	593	60.227118979176	1
5	607	62.516011262446	0
5	626	64.064255705607	1
5	627	64.653052414987	0
5	663	68.606750393448	1
5	667	69.190654899945	0
5	677	70.743791545989	1
5	680	70.886768273082	0
5	688	71.58688995102	1
5	692	71.818297024959	0
5	709	73.322063480329	1
5	720	74.567029508592	0
5	726	75.281394030947	1
5	730	76.122329295307	0
5	738	76.977507404084	1
5	740	77.16637118729	0
5	748	77.909036155961	1
5	772	80.657768639594	0
5	773	80.996336933191	1
5	779	82.213068426309	0
5	795	83.257110318292	1
5	796	83.445974101498	0
5	818	86.748507770596	1
5	831	88.173347541453	0
5	835	88.303807557311	1
5	845	89.5367132325	0
5	846	89.725577015706	1
5	851	89.960054402107	0
5	885	94.264086672455	1
5	893	95.627452363502	0
5	899	96.050793533109	1
5	915	97.244226230027	0
5	929	100.182020565346	1
5	932	100.209308035054	0
5	950	101.718191494504	1
5	964	103.334965361029	0
5	995	106.300047166056	1
5	1018	109.425704492031	0
5	1043	111.693430744639	1
5	1061	115.113786279836	0
5	1070	115.516443623033	1
5	1072	115.53056747107	0
5	1118	121.204525410838	1
5	1122	121.476722738177	0
5	1123	121.621306602072	1
5	1133	123.204840923932	0
5	1161	126.012162082464	1
5	1168	127.567461869179	0
[...]
9	5727	926.749951069871	0
9	5779	936.094112734779	1
9	5784	936.300504923122	0
9	5831	945.64466658803	1
9	5841	946.177111900883	0
9	5883	955.521273565791	1
9	5893	955.945770844358	0
9	5951	965.289932509266	1
9	5954	966.996730887691	0
9	5997	976.340892552599	1
9	6010	979.389372118502	0
9	6053	988.73353378341	1
9	6058	988.878589323536	0
9	6103	998.222750988444	1
9	6129	1002.293684572409	0
9	6177	1011.637846237317	1
9	6182	1012.601632336121	0
9	6226	1021.945794001029	1
9	6231	1022.090849541155	0
9	6272	1031.435011206063	1
9	6279	1031.580066746189	0
9	6327	1040.924228411097	1
9	6338	1041.864052862801	0
9	6389	1051.208214527709	1
9	6393	1052.349958279532	0
9	6442	1061.69411994444	1
9	6454	1063.292806563158	0
9	6502	1072.636968228066	1
9	6512	1074.281544168842	0
9	6557	1083.62570583375	1
9	6567	1083.928522457113	0
9	6611	1093.272684122021	1
9	6622	1095.040881973167	0
9	6668	1104.385043638075	1
9	6671	1104.54088934563	0
9	6715	1113.885051010538	1
9	6728	1116.076055185697	0
9	6771	1125.420216850605	1
9	6782	1126.281060844283	0
9	6824	1135.625222509191	1
9	6832	1135.961456001563	0
9	6879	1145.305617666471	1
9	6883	1145.450673206597	0
9	6928	1154.794834871505	1
9	6941	1156.781934764411	0
9	6989	1166.126096429319	1
9	6992	1166.221080605564	0
9	7035	1175.565242270472	1
9	7038	1175.760455152083	0
9	7094	1185.104616816991	1
9	7098	1185.749668858907	0
9	7145	1195.093830523815	1
9	7177	1199.355986891768	0
9	7218	1208.700148556676	1
9	7223	1208.922751477826	0
9	7274	1218.266913142734	1
9	7280	1218.412011671662	0
9	7333	1227.75617333657	1
9	7394	1240.342845256937	0
9	7434	1249.687006921845	1
9	7445	1251.473713782499	0
9	7497	1260.817875447407	1
9	7503	1262.852137711786	0
9	7553	1272.196299376694	1
9	7563	1273.555105474556	0
9	7604	1282.899267139464	1
9	7625	1285.529334433221	0
9	7669	1294.873496098129	1
9	7689	1297.435021540185	0
9	7731	1306.779183205093	1
9	7755	1311.511974294692	0
9	7801	1320.8561359596	1
9	7811	1321.812849187517	0
9	7864	1331.157010852425	1
9	7888	1335.419167220378	0
9	7930	1344.763328885286	1
9	7934	1344.99785425085	0
9	7989	1354.342015915758	1
9	8019	1360.801028931885	0
9	8068	1370.145190596793	1
9	8071	1370.240174773038	0
9	8124	1379.584336437946	1
9	8127	1379.764944484797	0
9	8167	1389.109106149705	1
9	8170	1389.254204678633	0
9	8217	1398.598366343541	1
9	8230	1401.659537742515	0
9	8276	1411.003699407423	1
9	8287	1412.521636073257	0
9	8336	1421.865797738165	1
9	8339	1422.431105839136	0
9	8387	1431.775267504044	1
9	8402	1434.871797960134	0
9	8444	1444.215959625042	1
9	8451	1444.361015165168	0
9	8502	1453.705176830076	1
9	8507	1453.850232370202	0
9	8549	1463.19439403511	1
9	8568	1465.182891064081	0
9	8612	1474.527052728989	1
9	8625	1477.573275382787	0
9	8675	1486.917437047695	1
9	8682	1487.062492587821	0
9	8725	1496.406654252729	1
9	8732	1496.551709792855	0
9	8778	1505.895871457763	1
9	8783	1506.040926997889	0
9	8825	1515.385088662797	1
9	8846	1517.669006940245	0
9	8887	1527.013168605153	1
9	8902	1529.763970010474	0
9	8947	1539.108131675382	1
9	8952	1539.253187215508	0
9	9001	1548.597348880416	1
9	9004	1548.619138108505	0
9	9053	1557.963299773413	1
9	9081	1562.976230228093	0
9	9129	1572.320391893001	1
9	9155	1577.210056035644	0
9	9198	1586.554217700552	1
9	9217	1588.493159231266	0
9	9261	1597.837320896174	1
9	9264	1597.982419425102	0
9	9313	1607.32658109001	1
9	9376	1619.911533458297	0
9	9426	1629.255695123205	1
9	9445	1632.783108733175	0
9	9494	1642.127270398083	1
9	9510	1643.829042631894	0
9	9558	1653.173204296802	1
9	9575	1657.868402278433	0
9	9623	1667.212563943341	1
9	9628	1667.317339271054	0
9	9677	1676.661500935962	1
9	9689	1678.641131072708	0
9	9741	1687.985292737616	1
9	9744	1688.130391266544	0
9	9789	1697.474552931452	1
9	9796	1698.014433082502	0
9	9845	1707.35859474741	1
9	9873	1711.888813877913	0
9	9913	1721.232975542821	1
9	9938	1725.46695082906	0
9	9984	1734.811112493968	1
9	10012	1739.073268861921	0
9	10064	1748.417430526829	1
9	10074	1749.810582526478	0
9	10114	1759.154744191386	1
9	10117	1759.335352238237	0
9	10170	1768.679513903145	1
9	10200	1775.356783616217	0
9	10248	1784.700945281125	1
9	10258	1785.972834546392	0
9	10305	1795.3169962113	1
9	10314	1795.777809279917	0
10	0	0	0
10	272	20.688323329816	1
10	277	20.838808742624	2
10	951	101.718191494504	3
10	1358	153.717125253841	4
10	1573	182.295943682884	5
10	1791	210.763724264392	6
10	1812	215.438932157823	7
10	1822	215.50835436131	8
10	1865	221.78610199728	9
10	1886	224.997614555146	10
10	2388	303.550267066189	11
10	2569	334.642371919666	12
10	2605	341.098557367232	13
10	2782	372.496571938272	14
10	2784	372.618728141947	15
10	3391	487.732829934877	16
10	3592	523.90931066098	17
10	3615	528.653940757898	18
10	4291	656.61093160722	19
10	4419	680.333974619805	20
10	4500	694.938213162151	21
10	4840	761.718894418249	22
10	4846	761.831952619168	23
10	4998	792.614428695259	24
10	5273	841.799527154486	25
10	5350	856.03341744524	26
10	5740	928.784926021263	27
10	5936	963.537784012321	28
10	6290	1033.100030939864	29
10	6335	1041.073991225042	30
10	6807	1131.736378169943	31
10	6860	1140.71122326032	32
10	6886	1145.455853357238	33
10	6891	1146.486014547039	34
10	7015	1170.006142042688	35
10	7514	1264.200185755808	36
10	7589	1278.305496070942	37
10	8211	1396.921248493892	38
10	8236	1402.351449868384	39
10	8445	1444.215959625042	40
10	8535	1458.867876096256	41
10	8735	1496.55848052917	42
10	9181	1581.961822273694	43
10	9260	1597.019140208832	44
10	10249	1784.700945281125	45
11	0	0	0
11	159	2	0
11	163	3.786706860654	1
11	183	8.090739131002	0
11	194	9.877445991656	1
11	224	14.559205828416	0
11	242	16.34591268907	1
11	253	17.393024893515	0
11	261	19.179731754169	1
11	263	19.271722009247	0
11	284	21.058428869901	1
11	293	21.928464237802	0
11	295	22.47503019047	1
11	299	22.625515603278	0
11	306	23.715171098456	1
11	307	24.412222463932	0
11	326	26.198929324586	1
11	327	26.463903582089	0
11	338	28.250610442743	1
11	363	30.529845297063	0
11	372	32.316552157717	1
11	665	68.901212561373	0
11	674	70.687919422027	1
11	686	71.075632056288	0
11	691	71.818297024959	1
11	699	72.862338916942	0
11	722	74.649045777596	1
11	727	75.281394030947	0
11	732	76.353736369246	1
11	739	77.068100891601	0
11	759	78.854807752255	1
11	816	86.532750570956	0
11	837	88.31945743161	1
11	849	89.914440798912	0
11	850	89.960054402107	1
11	861	91.701147659566	0
11	879	93.48785452022	1
11	887	94.495493746394	0
11	903	96.282200607048	1
11	949	101.637232035278	0
11	965	103.423938895932	1
11	969	103.504898355158	0
11	970	103.566372434968	1
11	986	105.291605215812	0
11	1006	107.078312076466	1
11	1011	108.101811779255	0
11	1022	109.888518639909	1
11	1139	124.779988404156	0
11	1164	126.56669526481	1
11	1184	129.524618501074	0
11	1197	131.311325361728	1
11	1212	133.658201000181	0
11	1231	135.444907860835	1
11	1312	147.407341993518	0
11	1334	149.194048854172	1
11	1353	152.710469940992	0
11	1365	154.497176801646	1
11	1373	155.503832114495	0
11	1381	157.290538975149	1
11	1386	157.991644566412	0
11	1409	159.778351427066	1
11	1414	160.587915932648	0
11	1422	162.374622793302	1
11	1425	162.527083910699	0
11	1442	164.313790771353	1
11	1492	171.36041490041	0
11	1505	173.147121761064	1
11	1543	177.828881597824	0
11	1560	179.615588458478	1
11	1563	180.668841287847	0
11	1577	182.455548148501	1
11	1591	184.082650543538	0
11	1599	185.869357404192	1
11	1637	190.38808742624	0
11	1649	192.174794286894	1
11	1666	195.289467390277	0
11	1686	197.076174250931	1
11	1698	198.265533417896	0
11	1703	198.810598664995	1
11	1709	200.05224027855	0
11	1727	201.838947139204	1
11	1738	203.346038009282	0
11	1744	205.132744869936	1
11	1775	209.226896168864	0
11	1792	211.013603029518	1
11	1796	212.416916697856	0
11	1797	212.550431125046	1
11	1804	214.20362355851	0
11	1823	215.990330419164	1
11	1828	216.952356042143	0
11	1832	217.225639018477	1
11	1833	217.295061221964	0
11	1840	218.739062902797	1
11	1841	219.081768082618	0
11	1861	220.868474943272	1
11	1862	221.48779538643	0
11	1868	223.274502247084	1
11	1869	223.572808857934	0
11	1887	225.359515718588	1
11	1890	226.023234730717	0
11	1895	226.7843214158	1
11	1899	227.809941591371	0
11	1917	229.596648452025	1
11	1923	229.742244652064	0
11	1930	230.558674075004	1
11	1933	231.528951512718	0
11	1943	233.315658373372	1
11	1957	235.094113419291	0
11	1968	236.880820279945	1
11	2035	248.469024378213	0
11	2054	250.255731238867	1
11	2070	253.18411656832	0
11	2078	254.970823428974	1
11	2093	257.091834560419	0
11	2106	258.878541421073	1
11	2236	278.935082977841	0
11	2244	280.721789838495	1
11	2268	284.58213113936	0
11	2275	286.368838000014	1
11	2284	286.67780581508	0
11	2293	288.464512675734	1
11	2297	289.519385550735	0
11	2312	291.306092411389	1
11	2361	300.765286418445	0
11	2379	302.551993279099	1
11	2383	303.125703583596	0
11	2390	304.91241044425	1
11	2398	305.336973926843	0
11	2409	307.123680787497	1
11	2413	307.661142927883	0
11	2417	309.447849788537	1
11	2426	310.40095629967	0
11	2443	312.187663160324	1
11	2446	312.19658227217	0
11	2453	313.983289132824	1
11	2478	318.898813971913	0
11	2491	320.685520832567	1
11	2500	321.267460960744	0
11	2507	323.054167821398	1
11	2567	334.12410678426	0
11	2577	335.910813644914	1
11	2580	336.42907878032	0
11	2587	338.215785640974	1
11	2594	338.868736881178	0
11	2595	339.409218337892	1
11	2601	340.655443741832	0
11	2615	342.442150602486	1
11	2618	342.885264227886	0
11	2632	343.944657682179	1
11	2633	344.67197108854	0
11	2636	346.458677949194	1
11	2671	352.955981046132	0
11	2683	354.742687906786	1
11	2698	357.319568641101	0
11	2709	359.106275501755	1
11	2779	372.081147559604	0
11	2788	373.867854420258	1
11	2797	374.283278798926	0
11	2798	374.405435002601	1
11	2799	376.06998565958	0
11	2806	377.856692520234	1
11	2902	395.804298044194	0
11	2909	397.591004904848	1
11	2917	398.369929813623	0
11	2921	400.156636674277	1
11	3010	416.453792337728	0
11	3011	418.240499198382	1
11	3030	420.815719461119	0
11	3037	422.602426321773	1
11	3056	424.272078625702	0
11	3059	426.058785486356	1
11	3097	434.012915764843	0
11	3110	435.799622625497	1
11	3233	460.411012737184	0
11	3237	462.197719597838	1
11	3245	462.229119401046	0
11	3249	464.0158262617	1
11	3277	466.973749497964	0
11	3282	468.760456358618	1
11	3322	476.4630096918	0
11	3334	478.249716552454	1
11	3345	480.007838010789	0
11	3360	481.794544871443	1
11	3377	485.952269885636	0
11	3392	487.73897674629	1
11	3395	489.078716699363	0
11	3399	489.519536795531	1
11	3408	490.865423560017	0
11	3418	492.652130420671	1
11	3422	493.61415604365	0
11	3423	495.400862904304	1
11	3445	498.088630222432	0
11	3446	499.875337083086	1
11	3508	510.242489536478	0
11	3516	512.029196397132	1
11	3568	521.350333079817	0
11	3572	523.137039940471	1
11	3576	523.207041879264	0
11	3593	524.993748739918	1
11	3596	525.362231453659	0
11	3599	525.696017521634	1
11	3600	527.148938314313	0
11	3616	528.935645174967	1
11	3621	529.666263724007	0
11	3623	529.897670797946	1
11	3625	530.440647618552	0
11	3628	531.452970584661	1
11	3632	532.227354479206	0
11	3648	534.01406133986	1
11	3649	534.433110142233	0
11	3658	536.219817002887	1
11	3678	538.143200951734	0
11	3684	539.929907812388	1
11	3722	547.808021101155	0
11	3734	549.594727961809	1
11	3772	557.121721339406	0
11	3782	558.90842820006	1
11	3812	564.475564463497	0
11	3818	566.262271324151	1
11	3829	567.16426227872	0
11	3840	568.950969139374	1
11	3848	570.716624896529	0
11	3860	572.503331757183	1
11	3906	580.844871823996	0
11	3915	582.63157868465	1
11	3918	584.32294292939	0
11	3933	586.109649790044	1
11	3954	590.334132017832	0
11	3962	592.120838878486	1
11	3971	593.393821617964	0
11	3982	595.180528478618	1
11	3993	598.56227684976	0
11	4005	600.348983710414	1
11	4120	623.546542696258	0
11	4131	625.333249556912	1
11	4147	629.706888812824	0
11	4163	631.493595673478	1
11	4254	648.892572444979	0
11	4263	650.679279305633	1
11	4275	652.354533093695	0
11	4278	654.141239954349	1
11	4284	655.078703077632	0
11	4300	656.865409938286	1
11	4303	656.889972437982	0
11	4307	658.397638467874	1
11	4310	658.676679298636	0
11	4314	660.46338615929	1
11	4321	661.425411782269	0
11	4335	663.212118642923	1
11	4363	668.982866586523	0
11	4370	670.769573447177	1
11	4413	679.335762085478	0
11	4426	681.122468946132	1
11	4462	687.263939709289	0
11	4466	689.050646569943	1
11	4498	694.715994150028	0
11	4504	696.502701010682	1
11	4546	704.205254343864	0
11	4555	705.991961204518	1
11	4613	717.961033520737	0
11	4628	719.747740381391	1
11	4652	724.690155528348	0
11	4660	726.476862389002	1
11	4681	730.433938048128	0
11	4688	732.220644908782	1
11	4754	744.820990605754	0
11	4763	746.607697466408	1
11	4777	749.272746790752	0
11	4784	751.059453651406	1
11	4821	756.396185409962	0
11	4827	758.182892270616	1
11	4838	761.14081550688	0
11	4850	762.927522367534	1
11	4876	768.111555533376	0
11	4883	769.89826239403	1
11	4913	775.374705797634	0
11	4919	777.161412658288	1
11	4992	791.439728882272	0
11	4999	793.226435742926	1
11	5032	799.097856282224	0
11	5042	800.884563142878	1
11	5075	805.789173018624	0
11	5076	807.575879879278	1
11	5098	810.863503069801	0
11	5106	812.650209930455	1
11	5113	813.331746572978	0
11	5119	815.118453433632	1
11	5153	821.563725134374	0
11	5166	823.350431995028	1
11	5171	824.627981761248	0
11	5180	826.414688621902	1
11	5194	827.565636863732	0
11	5198	829.352343724386	1
11	5215	832.161449900349	0
11	5225	833.948156761003	1
11	5247	837.187187589664	0
11	5257	838.973894450318	1
11	5261	840.749408766529	0
11	5277	842.536115627183	1
11	5311	849.74639341808	0
11	5328	851.533100278734	1
11	5344	856.025996332288	0
11	5360	857.812703192942	1
11	5378	860.778047542158	0
11	5388	862.564754402812	1
11	5395	863.772229125115	0
11	5410	865.558935985769	1
11	5435	870.267307735994	0
11	5442	872.054014596648	1
11	5474	877.613076423725	0
11	5482	879.399783284379	1
11	5495	881.14440798912	0
11	5502	882.931114849774	1
11	5515	885.301031526289	0
11	5522	887.087738386943	1
11	5527	887.424010903328	0
11	5537	889.210717763982	1
11	5566	893.990458220584	0
11	5574	895.777165081238	1
11	5637	908.224348511338	0
11	5644	910.011055371992	1
11	5663	912.968978608256	0
11	5669	914.75568546891	1
11	5673	915.178607988402	0
11	5678	916.965314849056	1
11	5735	927.20286889901	0
11	5745	928.989575759664	1
11	5758	931.381231302784	0
11	5770	933.167938163438	1
11	5827	943.9404371312	0
11	5833	945.727143991854	1
11	5916	960.415279577436	0
11	5923	962.20198643809	1
11	5931	962.779245873824	0
11	5937	964.565952734478	1
11	5994	975.33845170224	0
11	6005	977.125158562894	1
11	6068	990.397741097338	0
11	6078	992.184447957992	1
11	6091	994.177260444864	0
11	6100	995.963967305518	1
11	6149	1005.746288003062	0
11	6156	1007.532994863716	1
11	6273	1031.435011206063	0
11	6292	1033.221718066717	1
11	6323	1040.280518540941	0
11	6339	1042.067225401595	1
11	6385	1050.563251418878	0
11	6392	1052.349958279532	1
11	6416	1055.629065446665	0
11	6425	1057.415772307319	1
11	6487	1069.54177180655	0
11	6491	1071.328478667204	1
11	6530	1078.651885805251	0
11	6543	1080.438592665905	1
11	6649	1100.9305099864	0
11	6650	1102.717216847054	1
11	6658	1102.754182484976	0
11	6670	1104.54088934563	1
11	6802	1131.221963066484	0
11	6811	1133.008669927138	1
11	6835	1135.966593163402	0
11	6839	1137.753300024056	1
11	6849	1140.046073428147	0
11	6867	1141.832780288801	1
11	6880	1145.305617666471	0
11	6898	1147.092324527125	1
11	6980	1164.43437374491	0
11	6991	1166.221080605564	1
11	7005	1169.163211268474	0
11	7016	1170.949918129128	1
11	7048	1176.285744956896	0
11	7057	1178.07245181755	1
11	7100	1186.161650301387	0
11	7109	1187.948357162041	1
11	7116	1188.1575242295	0
11	7123	1189.944231090154	1
11	7146	1195.093830523815	0
11	7162	1196.880537384469	1
11	7171	1197.646784423336	0
11	7178	1199.43349128399	1
11	7211	1207.136044617172	0
11	7222	1208.922751477826	1
11	7226	1209.114534503905	0
11	7230	1210.901241364559	1
11	7264	1216.625304811008	0
11	7279	1218.412011671662	1
11	7286	1220.242965356352	0
11	7293	1222.029672217006	1
11	7308	1223.588483399918	0
11	7310	1225.375190260572	1
11	7435	1249.687006921845	0
11	7444	1251.473713782499	1
11	7511	1264.071605780188	0
11	7520	1265.858312640842	1
11	7544	1270.508722126801	0
11	7555	1272.295428987455	1
11	7566	1273.560865974024	0
11	7567	1275.347572834678	1
11	7580	1276.644465701749	0
11	7590	1278.431172562403	1
11	7659	1292.539386361696	0
11	7663	1294.32609322235	1
11	7736	1308.157406155264	0
11	7747	1309.944113015918	1
11	7783	1316.262536846286	0
11	7789	1318.04924370694	1
11	7802	1320.8561359596	0
11	7817	1322.642842820254	1
11	7821	1324.228636296835	0
11	7831	1326.015343157489	1
11	7839	1326.996214897888	0
11	7843	1328.782921758542	1
11	7873	1333.275817812096	0
11	7877	1335.06252467275	1
11	7956	1349.474947524712	0
11	7963	1351.261654385366	1
11	8002	1358.394229468928	0
11	8012	1360.180936329582	1
11	8040	1364.187103072815	0
11	8049	1365.973809933469	1
11	8064	1368.453467912384	0
11	8070	1370.240174773038	1
11	8075	1370.953435297344	0
11	8088	1372.740142157998	1
11	8205	1396.071846954176	0
11	8214	1397.85855381483	1
11	8233	1401.66587859081	0
11	8246	1403.452585451464	1
11	8326	1420.644398978482	0
11	8338	1422.431105839136	1
11	8440	1443.179874816196	0
11	8458	1444.96658167685	1
11	8481	1449.11217955999	0
11	8487	1450.898886420644	1
11	8526	1458.288010958607	0
11	8536	1460.074717819261	1
11	8663	1483.986287753088	0
11	8670	1485.772994613742	1
11	8676	1486.917437047695	0
11	8689	1488.704143908349	1
11	8699	1490.036086368616	0
11	8712	1491.82279322927	1
11	8726	1496.406654252729	0
11	8738	1498.193361113383	1
11	8768	1502.825096495712	0
11	8772	1504.611803356366	1
11	8796	1508.177843745764	0
11	8800	1509.964550606418	1
11	8918	1534.223111066752	0
11	8928	1536.009817927406	1
11	9002	1548.597348880416	0
11	9011	1550.38405574107	1
11	9035	1554.456839882695	0
11	9042	1556.243546743349	1
11	9067	1559.341522723584	0
11	9073	1561.128229584238	1
11	9084	1562.983301886022	0
11	9088	1564.770008746676	1
11	9116	1567.72793198294	0
11	9117	1569.514638843594	1
11	9174	1581.888191598591	0
11	9187	1583.674898459245	1
11	9206	1586.706452370612	0
11	9216	1588.493159231266	1
11	9229	1590.739537294624	0
11	9238	1592.526244155278	1
11	9257	1596.195712564448	0
11	9263	1597.982419425102	1
11	9379	1619.918863049038	0
11	9386	1621.705569909692	1
11	9393	1622.707145697174	0
11	9397	1624.493852557828	1
11	9404	1624.663493145956	0
11	9414	1626.45020000661	1
11	9459	1635.036711137746	0
11	9467	1636.8234179984	1
11	9475	1638.89738343671	0
11	9485	1640.684090297364	1
11	9521	1647.255963522496	0
11	9536	1649.04267038315	1
11	9606	1662.6205339213	0
11	9614	1664.407240781954	1
11	9619	1666.09477226512	0
11	9635	1667.881479125774	1
11	9685	1676.854424212054	0
11	9688	1678.641131072708	1
11	9732	1686.34368440589	0
11	9743	1688.130391266544	1
11	9763	1691.213183921952	0
11	9769	1692.999890782606	1
11	9921	1722.611198492992	0
11	9930	1724.397905353646	1
11	9943	1727.12799257209	0
11	9953	1728.914699432744	1
11	9985	1734.811112493968	0
11	9997	1736.597819354622	1
11	10009	1738.534615471988	0
11	10018	1740.321322332642	1
11	10028	1742.476539477814	0
11	10043	1744.263246338468	1
11	10060	1748.023875665824	0
11	10073	1749.810582526478	1
11	10111	1757.825086383538	0
11	10124	1759.611793244192	1
11	10233	1781.23628634425	0
11	10237	1783.022993204904	1
11	10247	1784.685043468555	0
11	10265	1786.471750329209	1
11	10284	1791.570036985249	0
11	10293	1793.356743845903	1
11	10306	1795.3169962113	0
11	10315	1797.103703071954	1
