version 2
run conf3-5-20161125-01:35:31-2484
attr configname conf3
attr datetime 20161125-01:35:31
attr experiment conf3
attr i 5
attr inifile omnetpp.ini
attr iterationvars "$i=5, $p=5, $q=6"
attr iterationvars2 "$i=5, $p=5, $q=6, $repetition=0"
attr measurement "$i=5, $p=5, $q=6"
attr network Omrezje
attr p 5
attr processid 2484
attr q 6
attr repetition 0
attr replication #0
attr resultdir results
attr runnumber 5
attr seedset 5
param Omrezje.router*.processingTime "truncnormal(${p = 5..7 step 2}, ${p} * 0.5)"
param Omrezje.router*.queueCapacity "truncnormal(${q = 1..6 step 5}, 0)"
param Omrezje.source*.interArrivalTime "truncnormal(${i = 3..5 step 2}, ${i} * 0.5)"

vector 0  Omrezje.router  droppedPackage:vector  ETV
attr interpolationmode  none
attr title  "drop package, vector"
vector 1  Omrezje.router  queueLength:vector  ETV
attr interpolationmode  none
attr title  "queue length, vector"
vector 2  Omrezje.router1  droppedPackage:vector  ETV
attr interpolationmode  none
attr title  "drop package, vector"
vector 3  Omrezje.router1  queueLength:vector  ETV
attr interpolationmode  none
attr title  "queue length, vector"
vector 4  Omrezje.router2  droppedPackage:vector  ETV
attr interpolationmode  none
attr title  "drop package, vector"
vector 5  Omrezje.router2  queueLength:vector  ETV
attr interpolationmode  none
attr title  "queue length, vector"
vector 6  Omrezje.router3  droppedPackage:vector  ETV
attr interpolationmode  none
attr title  "drop package, vector"
vector 7  Omrezje.router3  queueLength:vector  ETV
attr interpolationmode  none
attr title  "queue length, vector"
vector 8  Omrezje.router4  droppedPackage:vector  ETV
attr interpolationmode  none
attr title  "drop package, vector"
vector 9  Omrezje.router4  queueLength:vector  ETV
attr interpolationmode  none
attr title  "queue length, vector"
vector 10  Omrezje.router5  droppedPackage:vector  ETV
attr interpolationmode  none
attr title  "drop package, vector"
vector 11  Omrezje.router5  queueLength:vector  ETV
attr interpolationmode  none
attr title  "queue length, vector"
0	0	0	0
0	2469	180.857440372924	1
0	2492	182.486013161326	2
0	2515	185.805361530469	3
0	2551	189.814886439556	4
0	2581	193.250981364299	5
0	2620	197.029915498274	6
0	2628	198.108357466777	7
0	2644	200.696601198129	8
0	2854	224.254705169797	9
0	2860	224.73848660128	10
0	2877	227.159732164306	11
0	2912	230.479080533449	12
0	2919	231.700325003627	13
0	2927	232.956478879535	14
0	2929	232.976779209734	15
0	3035	246.591564671287	16
0	3104	255.313638711224	17
0	3111	256.14878211838	18
0	3124	257.673316137417	19
0	3127	258.149259591472	20
0	3221	269.286183921536	21
0	3234	271.833451167286	22
0	3324	285.096118046544	23
0	3329	285.991570416632	24
0	3331	286.724690834946	25
0	3365	291.265283674267	26
0	3395	294.901415306567	27
0	3570	319.826518539409	28
0	3573	320.206704234026	29
0	3686	335.603802825995	30
0	3690	335.939002677247	31
0	3700	337.286505037082	32
0	3713	339.575134309547	33
0	3724	340.736169023318	34
0	3730	341.676192066952	35
0	3786	349.608997874729	36
0	3870	361.180889173246	37
0	3892	364.500237542389	38
0	3940	369.518502892112	39
0	3943	371.530366207256	40
0	3951	371.945857376219	41
0	3990	376.803233478697	42
0	4054	386.837097043879	43
0	4090	391.79235155224	44
0	4202	407.456929588517	45
0	4214	408.497738047336	46
0	4222	409.173956545369	47
0	4290	419.6346623774	48
0	4312	422.42015730311	49
0	4339	425.286440683207	50
0	4368	429.514628325279	51
0	4377	430.771586707464	52
0	4391	432.732060517037	53
0	4399	434.008514723144	54
0	4414	436.340048872496	55
0	4416	436.368192149337	56
0	4435	438.956435880689	57
0	4456	441.908511037528	58
0	4510	448.899754390804	59
0	4518	450.528327179206	60
0	4546	453.847675548349	61
0	4659	469.750821862688	62
0	4661	469.960159686187	63
0	4788	486.456208357784	64
0	4804	489.574788745685	65
0	4823	492.024670522816	66
0	4947	508.730057017912	67
0	4987	514.648280591307	68
0	5070	525.715630155297	69
0	5107	530.633718324269	70
0	5157	538.28797640281	71
0	5171	539.875765185166	72
0	5188	542.140830008104	73
0	5195	543.026164679983	74
0	5219	547.321385018996	75
0	5247	550.120635702152	76
0	5250	550.742226081304	77
0	5253	551.163183113561	78
0	5287	555.498109490617	79
0	5309	558.8462165032	80
0	5339	562.212624686656	81
0	5501	585.592990812997	82
0	5632	603.393913823456	83
0	5643	605.29855490728	84
0	5706	614.53083815352	85
0	5752	621.065345923842	86
0	5832	633.281042270729	87
0	6094	670.726643079025	88
0	6130	675.783921968872	89
0	6132	675.785020264351	90
0	6157	679.472338046636	91
0	6265	694.869436638605	92
0	6310	701.837309355674	93
0	6315	702.09161274707	94
0	6363	709.5372325809	95
0	6471	725.90008145416	96
0	6497	729.437102093224	97
0	6511	731.468543619192	98
0	6545	735.928366217189	99
0	6689	756.457831006481	100
0	6694	757.686838436481	101
0	6845	780.023697937971	102
0	6875	783.739127527804	103
0	6878	783.9934309192	104
0	6988	798.88467058686	105
0	7018	803.893300431524	106
0	7120	819.710534544574	107
0	7148	823.17859157168	108
0	7241	836.11276975601	109
0	7247	837.2693247548	110
0	7255	838.575690163649	111
0	7281	842.837786919832	112
0	7331	848.840422558295	113
0	7417	861.925516110101	114
0	7491	873.086565533764	115
0	7509	876.248559910024	116
0	7511	876.466302721926	117
0	7537	880.532185367594	118
0	7547	881.817022075056	119
0	7825	920.79625723028	120
0	7893	930.958281715463	121
0	8216	977.14957749137	122
0	8253	982.281943688693	123
0	8260	982.883368054461	124
0	8366	997.679042280662	125
0	8562	1025.729152454361	126
0	8587	1029.444582044194	127
0	8996	1087.85012218124	128
0	9020	1090.061633832476	129
0	9183	1115.076590460321	130
0	9197	1115.723464819091	131
0	9204	1117.678317475672	132
0	9425	1148.574499385474	133
0	9427	1148.82880277687	134
0	9454	1153.837432621534	135
0	9479	1156.2744226107	136
0	9484	1156.782394397675	137
0	9522	1163.465739053134	138
0	9542	1167.047126792321	139
0	9546	1167.195929297131	140
0	9574	1171.37705465672	141
0	9580	1172.179492989644	142
0	9613	1176.945516821752	143
0	9736	1195.717498719531	144
0	9845	1211.869648300111	145
0	9878	1215.924751976976	146
0	9911	1221.493214142008	147
0	9927	1223.503154962874	148
0	9947	1227.06167630704	149
0	10028	1238.198600637104	150
0	10038	1238.900253554843	151
0	10111	1250.630490461324	152
0	10178	1259.567737919052	153
0	10218	1265.521730128984	154
0	10300	1277.177835792328	155
0	10424	1295.304209464304	156
0	10437	1297.486896062074	157
0	10533	1310.753380317365	158
0	10548	1312.63243912113	159
0	10593	1319.823755563564	160
0	10625	1323.553945807561	161
0	10701	1334.96929862262	162
0	10713	1336.41521130398	163
0	10727	1338.445185475221	164
0	10752	1342.41491845645	165
0	10782	1346.679943698626	166
0	10857	1357.051854732714	167
0	10859	1357.30615812411	168
0	10908	1365.984803251587	169
0	10954	1372.19739779177	170
0	10957	1372.341774685241	171
0	10959	1373.079274273756	172
0	11028	1382.978616927936	173
0	11105	1394.53425729326	174
0	11163	1401.97987712709	175
0	11212	1409.171193569524	176
0	11214	1409.42549696092	177
0	11228	1412.901383813521	178
0	11234	1413.400704263825	179
0	11264	1416.389389918128	180
0	11268	1416.87111679475	181
0	11282	1420.347003647351	182
0	11296	1421.95785208316	183
0	11339	1427.792623481181	184
0	11352	1429.325366473244	185
0	11368	1431.76235646241	186
0	11372	1433.094776413224	187
0	11454	1444.216606140904	188
0	11457	1444.231700743288	189
0	11524	1455.368625073352	190
0	11543	1459.107845808564	191
0	11586	1464.724366237055	192
0	11625	1469.856732434378	193
0	11637	1472.074011568448	194
0	11639	1472.401868584122	195
0	11663	1476.181772073994	196
0	11760	1488.890325143884	197
0	11765	1490.38619722367	198
0	11772	1491.32731513305	199
0	11799	1495.518563420993	200
0	11987	1522.190171053736	201
0	12025	1528.301110910804	202
0	12065	1533.3270953838	203
0	12103	1539.476920988631	204
0	12118	1541.7098591969	205
0	12163	1548.455283814524	206
0	12194	1551.974591591546	207
0	12253	1561.16940620896	208
0	12329	1572.306330539024	209
0	12338	1573.22913330518	210
0	12390	1580.67475313901	211
0	12450	1589.01171703412	212
0	12637	1615.465862318994	213
0	12734	1630.357101986654	214
0	12798	1640.23971180965	215
0	12811	1642.669173116178	216
0	12874	1651.161218496081	217
0	12936	1661.401725179536	218
0	13019	1672.5386495096	219
0	13039	1675.151380327298	220
0	13051	1677.213507587404	221
0	13106	1684.91343081263	222
0	13113	1685.416112721944	223
0	13138	1689.922060657294	224
0	13206	1699.550367088894	225
0	13212	1700.38096033476	226
0	13265	1707.25029031412	227
0	13326	1717.086346829856	228
0	13350	1720.708354360037	229
0	13370	1722.654808994888	230
0	13374	1723.616035783859	231
0	13612	1757.269239484466	232
0	13619	1759.115325759534	233
0	13644	1762.401605681789	234
0	13676	1767.202506315144	235
0	13679	1767.533971879112	236
0	13745	1777.798704273758	237
0	13763	1779.269498663254	238
1	0	0	0
1	193	9.44561983383	5
1	224	13.136924330064	4
1	226	13.330635000567	5
1	261	16.89123966766	4
1	262	16.89123966766	3
1	263	17.021939496801	4
1	266	17.215650167304	5
1	279	18.393201674278	4
1	286	18.705386495096	3
1	293	19.216949782593	4
1	319	20.776254834397	5
1	320	20.776254834397	6
1	325	20.906954663538	5
1	329	21.100665334041	6
1	331	21.285448392844	5
1	345	22.278216841015	6
1	355	22.590401661833	5
1	362	23.10196494933	6
1	364	23.235359458842	5
1	368	23.366403481521	4
1	387	24.661270001134	5
1	392	24.791969830275	6
1	398	25.170463559581	5
1	408	25.882917090521	6
1	415	26.47541682857	5
1	420	27.120374625579	6
1	424	27.251418648258	5
1	430	27.661830986615	4
1	447	28.546285167871	5
1	458	29.055478726318	6
1	469	29.469225698813	5
1	484	29.84231082516	4
1	486	29.975084623122	3
1	496	30.360431995307	4
1	510	31.136433814995	5
1	514	31.368319682297	4
1	516	31.546846153352	5
1	528	31.913179164461	4
1	535	32.431300334608	5
1	538	32.548884398449	6
1	556	33.35424086555	5
1	561	33.727325991897	6
1	563	33.860099789859	5
1	567	34.18955594322	4
1	569	34.245447162044	5
1	584	35.021448981732	6
1	593	35.253334849034	5
1	599	35.410772990192	4
1	600	35.431861320089	5
1	605	35.798194331198	6
1	615	36.316315501345	5
1	624	36.873551481856	4
1	628	36.904268263196	3
1	635	37.239256032287	4
1	637	37.420704456952	3
1	640	37.745114956596	4
1	650	37.926563381261	3
1	655	38.074571109957	4
1	660	38.130462328781	5
1	676	39.138350015771	6
1	679	39.214851706377	5
1	682	39.295788156929	6
1	683	39.316876486826	5
1	693	40.201330668082	6
1	701	40.758566648593	5
1	702	40.789283429933	6
1	710	40.979235155224	5
1	714	41.124271199024	6
1	717	41.305719623689	5
1	718	41.630130123333	6
1	719	41.811578547998	5
1	721	41.959586276694	6
1	725	42.015477495518	5
1	746	43.099866873114	6
1	747	43.201891653563	5
1	760	43.555108899372	4
1	771	44.64358181533	5
1	773	44.864250321961	6
1	776	45.190734790426	5
1	788	45.696593714735	6
1	791	45.900492662255	5
1	795	46.547697320256	4
1	806	47.078991176671	3
1	807	47.0869068203	4
1	808	47.440124066109	5
1	815	47.685436851598	4
1	831	48.528596982067	5
1	839	49.075749957163	6
1	843	49.518778583978	5
1	848	49.700667850082	4
1	850	49.785507828992	5
1	865	50.432712486993	6
1	879	50.964006343408	5
1	880	50.971921987037	6
1	883	51.325139232846	5
1	885	51.570452018335	6
1	891	52.116159485288	5
1	893	52.413612148804	6
1	898	52.546786322233	5
1	905	53.32366197323	4
1	908	53.403793750715	5
1	909	53.585683016819	6
1	913	53.670522995729	5
1	921	54.849021510145	6
1	925	55.210154399583	5
1	942	56.001174652025	6
1	944	56.055505880367	5
1	949	56.43180148897	6
1	957	56.887043515228	5
1	961	57.208677139967	6
1	964	57.231127662822	5
1	967	57.288808917452	6
1	973	57.555538162466	5
1	993	59.09516956632	6
1	996	59.212753630161	5
1	1000	59.940521047104	6
1	1010	60.772058681965	5
1	1014	61.116142829559	6
1	1018	61.440553329203	5
1	1039	63.097768796898	6
1	1043	63.253083815352	5
1	1066	64.657073848702	6
1	1077	65.32556849594	5
1	1093	65.878720938089	6
1	1111	66.978793782142	5
1	1116	67.138098982089	6
1	1120	67.557755948178	5
1	1136	68.720760565199	4
1	1140	68.821545980384	3
1	1146	69.210583662677	4
1	1159	70.35916302367	3
1	1166	70.863808948879	4
1	1174	71.442771114915	5
1	1181	71.873563694658	4
1	1187	72.544688246017	5
1	1190	72.605775731936	6
1	1192	72.706561147121	5
1	1198	73.095598829414	6
1	1224	74.244178190407	5
1	1233	74.748824115616	6
1	1240	75.327786281652	5
1	1244	75.758578861395	6
1	1252	75.922542518309	5
1	1258	76.429703412754	6
1	1260	76.591576313858	5
1	1274	78.129193357144	6
1	1279	78.39431795889	5
1	1296	79.212801448389	6
1	1302	79.807557685046	5
1	1318	80.476591480595	6
1	1340	82.279333125627	5
1	1361	83.612000232859	4
1	1364	83.692572851783	5
1	1370	84.117859157168	4
1	1381	85.52693247548	3
1	1383	85.692955321536	2
1	1386	86.164348292364	3
1	1402	87.497015399596	4
1	1405	87.57758801852	5
1	1411	88.002874323905	6
1	1416	88.421512048596	5
1	1432	89.250225354491	4
1	1436	89.411947642217	5
1	1441	89.577970488273	6
1	1443	90.049363459101	5
1	1447	90.252762310178	4
1	1451	90.800093574269	3
1	1462	91.382030566333	4
1	1464	91.462603185257	5
1	1480	92.306527215333	6
1	1482	92.542590169801	5
1	1484	92.621403497649	4
1	1490	93.135240521228	5
1	1496	93.296962808954	6
1	1507	93.934378625838	5
1	1508	94.137777476915	6
1	1517	94.685108741006	5
1	1519	95.26704573307	6
1	1526	95.347618351994	5
1	1540	96.427605336538	6
1	1542	96.457923524509	5
1	1543	96.506418664386	6
1	1550	96.663856805544	5
1	1554	96.857567476047	4
1	1556	97.020255687965	5
1	1559	97.819393792575	6
1	1572	98.570123907743	5
1	1578	99.232633518731	6
1	1581	99.514957749137	5
1	1588	100.342938691246	6
1	1597	100.548871972281	5
1	1600	100.742582642784	6
1	1601	100.905270854702	5
1	1603	101.225250450235	4
1	1616	102.191816368243	3
1	1620	102.232318970576	2
1	1621	102.45513907448	3
1	1627	102.816842617173	2
1	1634	103.399972915874	3
1	1642	103.903543358339	2
1	1647	104.433887139018	3
1	1653	104.790286021439	4
1	1659	105.110265616972	5
1	1672	105.874524785657	6
1	1674	106.07683153498	5
1	1675	106.117334137313	6
1	1679	106.340154241217	5
1	1682	106.70185778391	6
1	1688	107.284988082611	5
1	1695	107.788558525076	6
1	1698	107.800781135608	5
1	1701	108.318902305755	6
1	1709	108.675301188176	5
1	1713	108.995280783709	6
1	1728	109.961846701717	5
1	1730	110.163331054447	4
1	1732	110.225169407954	5
1	1738	111.170003249348	6
1	1742	111.349163192169	5
1	1744	111.685796302345	6
1	1750	111.879506972848	5
1	1759	112.560316354913	6
1	1765	112.968995807826	5
1	1772	113.36924330064	4
1	1774	113.846861868454	5
1	1776	114.048346221184	6
1	1779	114.110184574691	5
1	1793	115.234178358906	6
1	1799	115.764522139585	5
1	1810	116.854010974563	6
1	1813	117.254258467377	5
1	1819	117.731877035191	6
1	1823	117.995199741428	5
1	1834	118.937705465672	4
1	1846	119.649537306322	5
1	1863	121.139273634114	6
1	1869	121.292481702284	5
1	1873	121.880214908165	6
1	1880	122.822720632409	5
1	1888	123.534552473059	6
1	1902	124.506167630704	5
1	1910	125.177496869021	6
1	1929	126.707735799146	5
1	1934	127.461647330007	4
1	1938	128.391182797441	5
1	1948	128.738101536114	4
1	1958	130.074629795736	3
1	1962	130.309154933075	2
1	1964	130.366674324516	1
1	1966	130.592750965883	2
1	1972	131.346662496744	3
1	1977	132.276197964178	4
1	1980	132.538394017369	5
1	1983	132.623116702851	6
1	1999	133.959644962473	5
1	2002	134.194170099812	6
1	2006	134.47776613262	5
1	2011	135.231677663481	6
1	2024	136.100233416543	5
1	2026	136.161213130915	6
1	2033	136.423409184106	5
1	2044	137.84466012921	6
1	2050	138.362781299357	5
1	2053	138.543398796137	4
1	2073	139.98524858328	5
1	2077	140.308424350843	6
1	2083	140.573887327721	5
1	2096	142.247796466094	6
1	2119	143.870263750017	5
1	2123	144.458902494458	6
1	2145	145.989018629967	5
1	2155	146.780016290832	4
1	2165	147.755278916754	5
1	2177	148.577262361319	4
1	2187	149.874033796704	5
1	2199	150.838619722367	4
1	2202	151.074961037604	3
1	2208	151.640294083491	4
1	2236	153.759048963441	5
1	2249	154.849749938923	4
1	2254	155.525309250228	5
1	2269	157.098706868598	4
1	2273	157.644064130178	5
1	2278	157.916940620896	4
1	2287	158.520580871434	3
1	2289	159.410324416965	4
1	2305	160.880258297627	3
1	2312	161.529079296915	4
1	2327	163.295339583702	5
1	2344	165.414094463652	6
1	2354	167.180354750439	5
1	2370	168.325878131457	4
1	2378	169.05386495096	3
1	2390	170.914121862809	2
1	2391	171.065369917176	3
1	2397	171.368084511659	2
1	2409	173.411820539094	1
1	2419	174.622327115992	0
1	2423	174.950385083913	1
1	2440	176.500450708982	0
1	2454	178.83540025065	1
1	2459	179.580986166817	0
1	2493	182.720415417387	1
1	2509	184.768815852435	0
1	2521	186.605430584124	1
1	2544	189.163024577619	0
1	2558	190.490445750861	1
1	2569	191.327713611088	0
1	2587	194.375460917598	1
1	2607	196.257495599788	0
1	2629	198.260476084335	1
1	2641	199.711699250401	0
1	2664	202.145491251072	1
1	2675	202.464637941152	0
1	2695	206.030506417809	1
1	2705	207.29464789292	0
1	2732	209.915521584546	1
1	2748	212.427014090243	0
1	2761	213.800536751283	1
1	2776	215.587840865789	0
1	2795	217.68555191802	1
1	2825	221.570567084757	2
1	2839	222.691746484889	1
1	2841	223.033460699619	0
1	2861	225.455582251494	1
1	2871	226.076951601505	0
1	2896	229.340597418231	1
1	2910	230.306948766312	0
1	2930	233.225612584968	1
1	2962	237.110627751705	2
1	2973	238.282596036089	1
1	2984	240.422399043564	0
1	2988	240.995642918442	1
1	3000	242.050971831966	0
1	3022	244.880658085179	1
1	3032	245.377067058258	0
1	3051	248.765673251916	1
1	3079	252.58079742644	0
1	3080	252.650688418653	1
1	3096	254.037184505117	0
1	3113	256.53570358539	1
1	3116	256.942211499626	0
1	3139	260.420718752127	1
1	3165	263.243253140549	0
1	3182	264.305733918864	1
1	3186	264.387831333456	0
1	3201	268.190749085601	1
1	3213	268.883042260796	0
1	3235	272.075764252338	1
1	3262	275.960779419075	2
1	3275	279.147774655442	1
1	3283	279.845794585812	2
1	3286	280.010175638907	1
1	3292	280.4231082516	0
1	3306	283.730809752549	1
1	3316	284.280140852765	0
1	3338	287.615824919286	1
1	3342	287.625207881899	0
1	3366	291.500840086023	1
1	3371	291.560032581664	0
1	3399	295.38585525276	1
1	3420	299.270870419497	2
1	3426	299.677239444734	1
1	3446	302.347035140397	0
1	3453	303.155885586234	1
1	3477	307.040900752971	2
1	3480	307.432977548034	1
1	3505	309.94197183938	0
1	3509	310.925915919708	1
1	3521	313.602143175757	0
1	3532	314.810931086445	1
1	3546	316.003091970575	0
1	3556	318.695946253182	1
1	3568	319.402343406824	0
1	3586	322.580961419919	1
1	3611	325.339070431349	0
1	3617	326.465976586656	1
1	3640	329.769837049524	0
1	3643	330.350991753393	1
1	3650	330.539267736888	0
1	3675	334.23600692013	1
1	3679	334.717758207069	0
1	3705	338.121022086867	1
1	3711	338.844029671756	0
1	3734	342.006037253604	1
1	3760	345.868535220641	0
1	3761	345.891052420341	1
1	3773	347.020754143377	0
1	3787	349.776067587078	1
1	3805	352.106696551014	0
1	3818	353.661082753815	1
1	3838	357.054617708559	0
1	3842	357.546097920552	1
1	3850	358.569918103589	0
1	3874	361.431113087289	1
1	3888	363.95004072708	0
1	3895	365.316128254026	1
1	3913	366.997936218674	0
1	3927	369.201143420763	1
1	3937	369.357613644867	0
1	3958	373.0861585875	1
1	3972	374.443556052504	0
1	3991	376.971173754237	1
1	4013	380.655427222176	0
1	4014	380.856188920974	1
1	4023	381.795098601902	0
1	4038	384.741204087711	1
1	4049	386.223889387208	0
1	4070	388.626219254448	1
1	4083	390.963368508566	0
1	4097	392.511234421185	1
1	4107	394.282716877709	0
1	4123	396.396249587922	1
1	4132	397.360813717272	0
1	4147	400.281264754659	1
1	4165	402.324563391194	0
1	4176	404.166279921396	1
1	4195	406.585712814017	0
1	4206	408.051295088133	1
1	4210	408.231215258772	0
1	4233	411.93631025487	1
1	4254	414.066200212368	0
1	4271	415.821325421607	1
1	4287	419.117275055484	0
1	4291	419.706340588344	1
1	4304	421.476952481677	0
1	4323	423.591355755081	1
1	4327	424.065196213029	0
1	4349	427.476370921818	1
1	4353	427.986394377809	0
1	4378	431.361386088555	1
1	4384	431.510816046859	0
1	4402	435.246401255292	1
1	4408	435.637087511546	0
1	4437	439.131416422029	1
1	4442	440.177680350867	0
1	4462	443.016431588766	1
1	4473	443.703570369617	0
1	4492	446.901446755503	1
1	4499	447.623300184697	0
1	4519	450.78646192224	1
1	4538	453.045435367592	0
1	4548	454.671477088977	1
1	4583	458.556492255714	2
1	4605	462.441507422451	3
1	4629	464.986983436124	2
1	4632	465.419566846866	1
1	4636	466.150671484657	0
1	4637	466.326522589188	1
1	4653	468.738915216009	0
1	4662	470.211537755925	1
1	4677	472.081454458293	0
1	4689	474.096552922662	1
1	4724	477.981568089399	2
1	4727	478.682233726124	1
1	4734	479.310056351039	0
1	4748	481.866583256136	1
1	4765	484.442422548362	0
1	4776	485.751598422873	1
1	4784	486.270396502631	0
1	4805	489.63661358961	1
1	4817	491.075774717499	0
1	4834	493.521628756347	1
1	4850	495.202046182186	0
1	4865	497.406643923084	1
1	4888	501.019093227614	0
1	4889	501.291659089821	1
1	4909	503.16159485288	0
1	4919	505.176674256558	1
1	4932	507.553809569138	0
1	4950	509.061689423295	1
1	4974	512.946704590032	2
1	4977	513.412634218989	1
1	4984	514.633878689167	0
1	5006	516.831719756769	1
1	5025	520.368985929623	0
1	5026	520.716734923506	1
1	5056	524.601750090243	2
1	5059	524.984525517506	1
1	5065	525.501352126946	0
1	5085	528.48676525698	1
1	5091	528.837222635645	0
1	5113	532.371780423717	1
1	5143	535.850986413644	0
1	5147	536.256795590454	1
1	5151	536.572367843072	0
1	5172	540.141810757191	1
1	5182	540.898450718915	0
1	5204	544.026825923928	1
1	5211	545.73359623664	0
1	5231	547.911841090665	1
1	5235	548.052489656787	0
1	5254	551.796856257402	1
1	5265	553.17921607047	0
1	5288	555.681871424139	1
1	5293	556.295549310884	0
1	5317	559.566886590876	1
1	5324	560.6248359043	0
1	5343	563.451901757613	1
1	5370	566.753217525977	0
1	5371	567.33691692435	1
1	5394	569.658244520486	0
1	5400	571.221932091087	1
1	5427	575.106947257824	2
1	5454	578.991962424561	3
1	5465	581.120065163328	2
1	5473	581.644457193637	1
1	5479	581.957380297499	0
1	5485	582.876977591298	1
1	5489	582.96169540579	0
1	5507	586.761992758035	1
1	5537	590.647007924772	2
1	5560	594.532023091509	3
1	5584	597.598631682054	2
1	5587	597.825451658424	1
1	5591	598.417038258246	2
1	5597	599.781932857335	1
1	5609	601.328821926051	0
1	5622	602.302053424983	1
1	5627	602.486845086791	0
1	5644	606.18706859172	1
1	5672	610.072083758457	2
1	5687	612.74417474111	1
1	5691	612.751577481437	0
1	5697	613.957098925194	1
1	5700	613.970874901673	0
1	5724	617.842114091931	1
1	5743	620.099300318552	0
1	5757	621.727129258668	1
1	5779	625.612144425405	2
1	5783	625.667762483584	1
1	5797	628.148676073406	0
1	5811	629.497159592142	1
1	5821	631.111301261371	0
1	5836	633.382174758879	1
1	5862	637.267189925616	2
1	5887	641.152205092353	3
1	5908	643.545774665375	2
1	5912	645.03722025909	3
1	5933	647.941611143712	2
1	5942	648.922235425827	3
1	5962	652.807250592564	4
1	5971	653.448160762861	3
1	5974	653.510073308744	2
1	5993	656.692265759301	3
1	6020	660.577280926038	4
1	6037	662.426523588754	3
1	6039	663.632172056856	2
1	6050	664.462296092775	3
1	6056	664.609210186524	2
1	6059	664.646997638808	1
1	6075	668.347311259512	2
1	6086	669.872143422584	1
1	6089	670.21545980384	0
1	6106	672.232326426249	1
1	6121	674.339971849313	0
1	6133	676.117341592986	1
1	6139	677.317763256414	0
1	6162	680.002356759723	1
1	6166	681.352384133904	0
1	6183	683.88737192646	1
1	6194	684.604704243959	0
1	6216	687.772387093197	1
1	6230	690.676259932011	0
1	6239	691.657402259934	1
1	6260	694.391689521844	0
1	6269	695.542417426671	1
1	6281	698.057770629	0
1	6294	699.427432593408	1
1	6297	699.654622757904	0
1	6320	703.312447760145	1
1	6342	707.100242591734	0
1	6343	707.197462926882	1
1	6361	709.282929189504	0
1	6371	711.082478093619	1
1	6397	714.763157124096	0
1	6398	714.967493260356	1
1	6407	715.398901427897	0
1	6423	718.852508427093	1
1	6435	720.331619289128	0
1	6450	722.73752359383	1
1	6463	724.42847224856	0
1	6475	726.622538760567	1
1	6488	727.904359101161	0
1	6500	730.507553927304	1
1	6505	730.796000019866	0
1	6529	734.392569094041	1
1	6533	734.576882278546	0
1	6559	738.277584260778	1
1	6569	739.31971191622	0
1	6586	742.162599427515	1
1	6590	742.605467949256	0
1	6609	746.047614594252	1
1	6625	746.76533175005	0
1	6642	749.932629760989	1
1	6669	753.74239227932	0
1	6670	753.817644927726	1
1	6678	754.21095158388	0
1	6695	757.702660094463	1
1	6717	761.5876752612	2
1	6749	765.472690427937	3
1	6755	766.665201262374	2
1	6758	766.722563401127	1
1	6776	769.357705594674	2
1	6801	773.242720761411	3
1	6819	776.016240939448	2
1	6823	776.293507693974	1
1	6832	776.987295795773	0
1	6833	777.127735928148	1
1	6837	777.14370841156	0
1	6853	781.012751094885	1
1	6868	782.119661993096	0
1	6889	784.897766261622	1
1	6908	788.782781428359	2
1	6938	792.384394387742	1
1	6939	792.667796595096	2
1	6956	794.914937605631	1
1	6965	796.552811761833	2
1	6973	797.516760585065	1
1	6979	798.290089599576	0
1	6994	800.43782692857	1
1	7005	802.360557439461	0
1	7021	804.322842095307	1
1	7043	808.207857262044	2
1	7067	811.338920265354	1
1	7070	812.092872428781	2
1	7078	812.913859177034	1
1	7086	814.995476094672	0
1	7103	815.977887595518	1
1	7110	817.251797107121	0
1	7122	819.862902762255	1
1	7134	820.967226696954	0
1	7151	823.747917928992	1
1	7169	826.132400424736	0
1	7175	827.632933095729	1
1	7179	828.310957769003	0
1	7201	831.517948262466	1
1	7205	831.700862589768	0
1	7231	835.402963429203	1
1	7239	835.858466364614	0
1	7256	839.28797859594	1
1	7265	840.993947611081	0
1	7285	843.172993762677	1
1	7300	843.708056360972	0
1	7310	847.058008929414	1
1	7317	848.08841863325	0
1	7343	850.943024096151	1
1	7365	854.828039262888	2
1	7371	855.182889655419	1
1	7389	858.195325866104	0
1	7392	858.713054429625	1
1	7400	859.543173414928	0
1	7421	862.598069596362	1
1	7444	865.89524909133	0
1	7448	866.483084763099	1
1	7468	869.371831699757	0
1	7473	870.368099929836	1
1	7477	870.680097744992	0
1	7499	874.253115096573	1
1	7503	874.50225354491	0
1	7526	878.13813026331	1
1	7529	878.349498769824	0
1	7554	882.023145430047	1
1	7575	885.908160596784	2
1	7591	887.385484240088	1
1	7598	888.23210859282	0
1	7605	889.793175763521	1
1	7633	893.678190930258	2
1	7651	895.67772842665	1
1	7661	897.563206096995	2
1	7665	897.749715788433	1
1	7672	898.522408570152	0
1	7690	901.448221263732	1
1	7720	905.333236430469	2
1	7745	909.218251597206	3
1	7750	909.659332900216	2
1	7755	910.428816926171	1
1	7771	913.103266763943	2
1	7779	914.044854946911	1
1	7793	915.577597938974	0
1	7799	916.98828193068	1
1	7822	920.693549320817	0
1	7826	920.873297097417	1
1	7846	924.758312264154	2
1	7859	925.82591551814	1
1	7878	928.643327430891	2
1	7881	928.936094614571	1
1	7889	930.468837606634	0
1	7897	932.528342597628	1
1	7931	936.381714448401	0
1	7932	936.413357764365	1
1	7958	940.298372931102	2
1	7987	943.827334282231	1
1	7988	944.183388097839	2
1	7993	945.360077274294	1
1	8012	947.542763872064	0
1	8016	948.068403264576	1
1	8042	951.953418431313	2
1	8048	952.805697108124	1
1	8067	955.24268709729	0
1	8068	955.83843359805	1
1	8092	959.723448764787	2
1	8121	963.608463931524	3
1	8136	965.343954550536	2
1	8148	967.493479098261	3
1	8160	968.694426010123	2
1	8175	970.912416715568	1
1	8178	971.378494264998	2
1	8185	972.017211294047	1
1	8203	975.263509431735	2
1	8207	975.788897032292	1
1	8213	976.4808788806	0
1	8231	979.148524598472	1
1	8250	982.049341045632	0
1	8262	983.033539765209	1
1	8282	986.918554931946	2
1	8292	987.617803210664	1
1	8312	990.803570098683	2
1	8327	992.546676083339	1
1	8333	993.186265375696	0
1	8337	994.68858526542	1
1	8356	997.072310098799	0
1	8370	998.573600432157	1
1	8396	1002.458615598894	2
1	8401	1002.811408477985	1
1	8425	1006.343630765631	2
1	8449	1009.891651870792	1
1	8452	1010.228645932368	2
1	8470	1013.076140872631	1
1	8476	1014.113661099105	2
1	8484	1014.80764576793	1
1	8507	1017.998676265842	2
1	8520	1019.816275612594	1
1	8528	1021.883691432579	2
1	8535	1021.998962210364	1
1	8543	1022.25326560176	0
1	8564	1025.768706599316	1
1	8574	1027.261895446424	0
1	8588	1029.653721766053	1
1	8614	1033.53873693279	2
1	8643	1037.423752099527	3
1	8670	1041.308767266264	4
1	8695	1044.335821711854	3
1	8698	1044.59012510325	2
1	8699	1045.193782433001	3
1	8724	1048.870887026016	2
1	8728	1049.078797599738	3
1	8746	1051.781441545684	2
1	8753	1052.963812766475	3
1	8769	1055.511631789681	2
1	8776	1056.848827933212	3
1	8798	1059.48136477091	2
1	8804	1060.733843099949	3
1	8835	1064.618858266686	4
1	8841	1065.576273521112	3
1	8858	1068.017020320489	2
1	8860	1068.503873433423	3
1	8884	1071.144735686144	2
1	8889	1071.935614449404	1
1	8892	1072.38888860016	2
1	8903	1074.664535240507	1
1	8918	1076.273903766897	2
1	8933	1077.848491291171	1
1	8944	1080.158918933634	2
1	8953	1081.8182242724	1
1	8960	1082.205962364827	0
1	8971	1084.043934100371	1
1	8990	1086.826854117064	0
1	8997	1087.928949267108	1
1	9013	1089.26384410623	0
1	9026	1091.813964433845	1
1	9054	1095.698979600582	2
1	9079	1099.583994767319	3
1	9082	1100.185350792661	2
1	9105	1103.469009934056	3
1	9112	1103.900780382494	2
1	9114	1104.15508377389	1
1	9130	1107.354025100793	2
1	9137	1107.630970626491	1
1	9152	1110.123970841368	0
1	9160	1111.23904026753	1
1	9163	1111.346400216324	0
1	9184	1115.124055434267	1
1	9194	1115.6924330064	0
1	9217	1119.009070601004	1
1	9240	1122.522210294151	0
1	9246	1122.894085767741	1
1	9267	1126.779100934478	2
1	9272	1126.829357336464	1
1	9295	1130.664116101215	2
1	9303	1131.86725952001	1
1	9311	1132.397819501496	0
1	9325	1134.549131267952	1
1	9334	1136.252929608383	0
1	9351	1138.434146434689	1
1	9354	1138.946192953874	0
1	9382	1142.319161601426	1
1	9390	1143.53474383156	0
1	9400	1146.204176768163	1
1	9406	1146.517662003029	0
1	9436	1150.0891919349	1
1	9444	1152.304689629471	0
1	9461	1153.974207101637	1
1	9473	1156.020119219304	0
1	9485	1157.859222268374	1
1	9493	1159.750309463301	0
1	9507	1161.744237435111	1
1	9514	1161.914760594998	0
1	9531	1165.629252601848	1
1	9536	1165.808592491688	0
1	9564	1169.514267768585	1
1	9570	1171.16566227836	0
1	9584	1173.399282935322	1
1	9602	1174.641549130961	0
1	9614	1177.284298102059	1
1	9618	1177.311859186967	0
1	9637	1181.169313268796	1
1	9651	1182.513978986784	0
1	9665	1185.054328435533	1
1	9684	1188.082441151816	0
1	9691	1188.93934360227	1
1	9698	1189.532788798621	0
1	9711	1192.824358769007	1
1	9726	1193.650903316848	0
1	9738	1196.709373935744	1
1	9746	1197.841323976259	0
1	9761	1200.594389102481	1
1	9764	1200.693838222284	0
1	9790	1204.479404269218	1
1	9811	1208.106056370905	0
1	9817	1208.364419435955	1
1	9839	1210.356289811944	0
1	9847	1212.249434602692	1
1	9858	1213.402391292174	0
1	9879	1216.134449769429	1
1	9895	1219.315268133941	0
1	9898	1220.019464936166	1
1	9907	1220.848011126004	0
1	9928	1223.904480102903	1
1	9932	1224.095382808207	0
1	9950	1227.78949526964	1
1	9978	1230.730620949	0
1	9982	1231.674510436377	1
1	10003	1235.559525603114	2
1	10009	1235.739250793664	1
1	10023	1237.921937391434	0
1	10039	1239.444540769851	1
1	10057	1243.184870627494	0
1	10058	1243.329555936588	1
1	10064	1243.767062802136	0
1	10089	1247.214571103325	1
1	10104	1249.335524967168	0
1	10117	1251.099586270062	1
1	10123	1252.473266896883	0
1	10142	1254.984601436799	1
1	10167	1258.076110295154	0
1	10168	1258.869616603536	1
1	10173	1259.429718344135	0
1	10197	1262.754631770273	1
1	10211	1264.562084541458	0
1	10225	1266.63964693701	1
1	10228	1266.662208941221	0
1	10247	1270.524662103747	1
1	10262	1271.609373627296	0
1	10275	1274.409677270484	1
1	10282	1274.826816936104	0
1	10307	1278.294692437221	1
1	10318	1280.412969796644	0
1	10333	1282.179707603958	1
1	10340	1282.74629795736	0
1	10356	1286.064722770695	1
1	10372	1288.314760122392	0
1	10378	1289.949737937432	1
1	10381	1290.041276228244	0
1	10408	1293.834753104169	1
1	10412	1293.883222287424	0
1	10438	1297.719768270906	1
1	10464	1301.604783437643	2
1	10475	1302.749829298134	1
1	10493	1305.1868192873	0
1	10494	1305.48979860438	1
1	10517	1308.662706139901	0
1	10521	1309.374813771117	1
1	10527	1310.195449131964	0
1	10553	1313.259828937854	1
1	10569	1316.323506096404	0
1	10576	1317.144844104591	1
1	10585	1317.641068965794	0
1	10605	1321.029859271328	1
1	10622	1323.417977118573	0
1	10626	1324.914874438065	1
1	10661	1328.799889604802	2
1	10674	1330.999565641391	1
1	10681	1332.532308633454	0
1	10683	1332.684904771539	1
1	10690	1332.862457442648	0
1	10714	1336.569919938276	1
1	10719	1337.606919162911	0
1	10738	1340.454935105013	1
1	10743	1341.547577501303	0
1	10766	1344.33995027175	1
1	10772	1344.70139018508	0
1	10790	1348.224965438487	1
1	10821	1352.109980605224	2
1	10827	1353.336425142881	1
1	10840	1355.136306102776	0
1	10847	1355.994995771961	1
1	10855	1356.944676093272	0
1	10868	1359.880010938698	1
1	10895	1362.314787968774	0
1	10898	1363.765026105435	1
1	10901	1364.497474566544	0
1	10922	1367.650041272172	1
1	10925	1368.227664810541	0
1	10945	1371.535056438909	1
1	10950	1371.841692597872	0
1	10978	1375.420071605646	1
1	10991	1377.474140882564	0
1	10998	1379.305086772383	1
1	11025	1382.606507079887	0
1	11031	1383.19010193912	1
1	11041	1386.834334068034	0
1	11045	1387.075117105857	1
1	11068	1388.547079092968	0
1	11080	1390.960132272594	1
1	11092	1392.871239474533	0
1	11112	1394.845147439331	1
1	11132	1398.730162606068	2
1	11137	1399.542887137924	1
1	11142	1399.684003423032	0
1	11164	1402.615177772805	1
1	11180	1405.252465588064	0
1	11185	1406.500192939542	1
1	11198	1408.268338066502	0
1	11218	1410.385208106279	1
1	11223	1410.820927753096	0
1	11240	1414.270223273016	1
1	11254	1415.64610040677	0
1	11271	1418.155238439753	1
1	11278	1418.533070461148	0
1	11299	1422.04025360649	1
1	11305	1422.740571428939	0
1	11324	1425.925268773227	1
1	11337	1427.526314248192	0
1	11353	1429.810283939964	1
1	11356	1429.835042451108	0
1	11376	1433.695299106701	1
1	11392	1435.238243315011	0
1	11405	1437.580314273438	1
1	11419	1439.20797629624	0
1	11429	1441.465329440175	1
1	11452	1444.194901447763	0
1	11458	1445.350344606912	1
1	11478	1449.235359773649	2
1	11495	1451.118455517615	1
1	11501	1451.662225974734	0
1	11507	1453.120374940386	1
1	11515	1454.0992159639	0
1	11533	1457.005390107123	1
1	11540	1458.212926539784	0
1	11556	1460.89040527386	1
1	11561	1460.937087238384	0
1	11587	1464.775420440597	1
1	11593	1465.307397561953	0
1	11611	1468.660435607334	1
1	11618	1468.99045563156	0
1	11643	1472.545450774071	1
1	11651	1473.999085476224	0
1	11665	1476.430465940808	1
1	11678	1477.64247373348	0
1	11698	1480.315481107545	1
1	11712	1483.210935898512	0
1	11723	1484.200496274282	1
1	11747	1487.357582151821	0
1	11751	1488.085511441019	1
1	11758	1488.779398063544	0
1	11777	1491.970526607756	1
1	11793	1494.803201985651	0
1	11800	1495.855541774493	1
1	11830	1499.74055694123	2
1	11855	1503.625572107967	3
1	11870	1505.48478455864	2
1	11880	1505.964251409314	1
1	11885	1507.510587274704	2
1	11896	1509.694441653311	1
1	11905	1510.915662012962	0
1	11911	1511.395602441441	1
1	11924	1513.409871243144	0
1	11940	1515.280617608178	1
1	11949	1516.621708888704	0
1	11967	1519.165632774915	1
1	11975	1521.10979446837	0
1	11990	1523.050647941652	1
1	12011	1526.312760604931	0
1	12012	1526.935663108389	1
1	12020	1527.758633218768	0
1	12037	1530.820678275126	1
1	12045	1531.445126802254	0
1	12070	1534.705693441863	1
1	12076	1535.746730744634	0
1	12094	1538.5907086086	1
1	12099	1538.895557548832	0
1	12122	1542.475723775337	1
1	12142	1544.464019713864	0
1	12148	1546.360738942074	1
1	12158	1546.922540822461	0
1	12178	1550.245754108811	1
1	12184	1550.637970412294	0
1	12206	1554.130769275548	1
1	12216	1555.600944043928	0
1	12230	1558.015784442285	1
1	12233	1558.083590246124	0
1	12259	1561.900799609022	1
1	12284	1565.78351347135	0
1	12285	1565.785814775759	1
1	12289	1566.737868373992	0
1	12311	1569.670829942496	1
1	12321	1570.792143316014	0
1	12340	1573.555845109233	1
1	12357	1576.705020157781	0
1	12364	1577.44086027597	1
1	12373	1577.874792704056	0
1	12394	1581.325875442707	1
1	12420	1585.210890609444	2
1	12423	1585.683382983674	1
1	12440	1587.901154972807	0
1	12451	1589.095905776181	1
1	12466	1592.980920942918	2
1	12474	1593.03352117013	1
1	12506	1596.865936109655	2
1	12530	1600.750951276392	3
1	12544	1602.757309249104	2
1	12558	1604.635966443129	3
1	12573	1607.196818005333	2
1	12576	1608.020242485164	1
1	12579	1608.430619762099	0
1	12586	1608.520981609866	1
1	12598	1610.202929082934	0
1	12610	1612.405996776603	1
1	12618	1613.562985959422	0
1	12643	1616.29101194334	1
1	12648	1616.85402785928	0
1	12663	1620.176027110077	1
1	12689	1623.827718354068	0
1	12690	1624.061042276814	1
1	12704	1627.946057443551	2
1	12709	1627.990952189344	1
1	12722	1628.960084551391	0
1	12738	1631.831072610288	1
1	12765	1635.574702094009	0
1	12767	1635.716087777025	1
1	12786	1639.224816946037	0
1	12790	1639.601102943762	1
1	12794	1639.985408418254	0
1	12818	1643.486118110499	1
1	12837	1647.371133277236	2
1	12840	1647.431028252084	1
1	12858	1649.763644138347	0
1	12875	1651.256148443973	1
1	12887	1654.876648085914	0
1	12895	1655.14116361071	1
1	12911	1656.858115160516	0
1	12921	1659.026178777447	1
1	12929	1660.139581321974	0
1	12947	1662.911193944184	1
1	12974	1666.796209110921	2
1	12981	1667.585201155804	1
1	12998	1670.019014129975	0
1	13006	1670.681224277658	1
1	13009	1671.047057204854	0
1	13026	1674.566239444395	1
1	13036	1675.030820989634	0
1	13064	1678.451254611132	1
1	13070	1680.283746524621	0
1	13087	1682.336269777869	1
1	13091	1682.476440823464	0
1	13116	1686.221284944606	1
1	13133	1689.244036004696	0
1	13142	1690.106300111343	1
1	13161	1692.35905064646	0
1	13165	1693.99131527808	1
1	13176	1694.812498169728	0
1	13193	1697.876330444817	1
1	13203	1699.42494129353	0
1	13221	1701.761345611554	1
1	13242	1705.646360778291	2
1	13249	1705.949422499792	1
1	13256	1706.995986922724	0
1	13274	1709.531375945028	1
1	13289	1711.517884664824	0
1	13299	1713.416391111765	1
1	13310	1714.441606756554	0
1	13327	1717.301406278502	1
1	13342	1719.704539992614	0
1	13356	1721.186421445239	1
1	13360	1721.342676103205	0
1	13376	1725.071436611976	1
1	13391	1726.475042300528	0
1	13412	1728.956451778713	1
1	13434	1732.84146694545	2
1	13444	1733.791733324952	1
1	13461	1736.726482112187	2
1	13492	1740.611497278924	3
1	13506	1741.991767426544	2
1	13509	1742.041399494104	1
1	13518	1744.496512445661	2
1	13523	1744.928657655016	1
1	13525	1745.952895285349	0
1	13547	1748.381527612398	1
1	13557	1749.487019327934	0
1	13571	1752.266542779135	1
1	13600	1756.151557945872	2
1	13603	1756.180709470882	1
1	13608	1756.932639161764	0
1	13624	1760.036573112609	1
1	13638	1761.634044150112	0
1	13654	1763.921588279346	1
1	13670	1766.560945593364	0
1	13680	1767.806603446083	1
1	13694	1770.36965151522	0
1	13702	1771.69161861282	1
1	13712	1772.666338076435	0
1	13734	1775.576633779557	1
1	13737	1775.735374620669	0
1	13764	1779.461648946294	1
1	13783	1782.931070471081	0
1	13788	1783.346664113031	1
1	13793	1783.90789281024	0
1	13811	1787.231679279768	1
1	13836	1791.116694446505	2
1	13855	1793.195802865727	1
1	13865	1795.001709613242	2
1	13869	1795.044817140304	1
1	13892	1798.747535603896	0
1	13894	1798.886724779979	1
2	0	0	0
2	220	12.902303116167	1
2	227	13.330635000567	2
2	251	15.920783647691	3
2	2072	139.89739625012	4
2	2078	140.308424350843	5
2	2097	142.247796466094	6
2	2442	177.328413714374	7
2	2483	181.981117314056	8
2	2665	202.145491251072	9
2	2708	207.794382330304	10
2	2784	216.741964170752	11
2	2836	222.635834000192	12
2	2959	236.425573625204	13
2	2963	237.110627751705	14
2	2966	237.505328911874	15
2	3025	245.206569074271	16
2	3155	261.972725009192	17
2	3178	264.005052875228	18
2	3183	264.305733918864	19
2	3204	268.24661629775	20
2	3207	268.63869231712	21
2	3361	289.91030576885	22
2	4071	388.626219254448	23
2	4167	402.562265296096	24
2	4217	408.624005783608	25
2	4220	408.797318937854	26
2	4272	415.821325421607	27
2	4324	423.591355755081	28
2	4923	505.325496312938	29
2	5337	561.941253865952	30
2	5368	566.72411567735	31
2	5733	618.813541132894	32
2	5737	619.383146990912	33
2	5771	623.627694348694	34
2	5936	648.598828869016	35
2	5987	655.264796176944	36
2	5994	656.692265759301	37
2	5998	657.01263218807	38
2	6034	662.140920075094	39
2	6049	664.121056193152	40
2	6051	664.462296092775	41
2	6084	669.362149898794	42
2	6102	671.769226506694	43
2	6123	675.003206257504	44
2	6127	675.262698100728	45
2	6177	682.016219874048	46
2	6238	691.4869812506	47
2	6587	742.162599427515	48
2	6610	746.047614594252	49
2	6616	746.380413807282	50
2	6638	748.787490415182	51
2	6640	749.704754585632	52
2	6671	753.817644927726	53
2	6769	768.58624041172	54
2	6870	782.486562925782	55
2	6899	787.300716141582	56
2	6909	788.782781428359	57
2	6925	789.707792749482	58
2	6975	798.041050562656	59
2	6982	798.334783799872	60
2	7000	801.804898250696	61
2	7003	801.91607695136	62
2	7047	808.582044259288	63
2	7050	808.699768063202	64
2	7052	808.964405612682	65
2	7108	816.229947480768	66
2	7232	835.402963429203	67
2	7234	835.634076354484	68
2	7286	843.172993762677	69
2	7290	843.174117125732	70
2	7459	868.57575003064	71
2	7646	895.239619262352	72
2	7669	898.33307562578	73
2	7724	905.705765885248	74
2	7726	906.112462429133	75
2	7877	928.569455801992	76
2	7886	930.183228508133	77
2	7978	943.049938493728	78
2	8031	950.443675087488	79
2	8072	956.23256466928	80
2	8105	961.475224410833	81
2	8114	961.899292341632	82
2	8149	967.493479098261	83
2	8163	968.696454234533	84
2	8219	977.286420608832	85
2	8263	983.033539765209	86
2	8265	983.138913881933	87
2	8283	986.918554931946	88
2	8285	986.992025745568	89
2	8294	987.953067097733	90
2	8298	987.966383188358	91
2	8313	990.803570098683	92
2	8319	991.386234470752	93
2	8343	995.174296921433	94
2	8347	995.181584289728	95
2	8350	995.229128881272	96
2	8394	1002.395526745133	97
2	8419	1004.802603353033	98
2	8453	1010.228645932368	99
2	8499	1016.837986392533	100
2	8533	1021.892998112984	101
2	8585	1029.335602063394	102
2	8604	1031.280446039933	103
2	8729	1049.078797599738	104
2	8781	1056.915081313418	105
2	8817	1061.888801960552	106
2	8819	1062.572441942633	107
2	8861	1068.503873433423	108
2	8865	1068.55476926848	109
2	8873	1069.793671766333	110
2	9055	1095.698979600582	111
2	9058	1096.271514453233	112
2	9314	1132.758649250984	113
2	9352	1138.434146434689	114
2	9364	1140.789331127008	115
2	9383	1142.319161601426	116
2	9392	1144.413046611233	117
2	9423	1148.546376963616	118
2	9439	1151.634276434933	119
2	9462	1153.974207101637	120
2	9464	1154.041353042833	121
2	9471	1155.212344271544	122
2	9516	1162.760374752928	123
2	9692	1188.93934360227	124
2	9871	1215.497087001056	125
2	9890	1218.871130300928	126
2	9917	1222.391956813562	127
2	9964	1228.673505630688	128
2	9968	1229.286826626068	129
2	9970	1229.803147527214	130
2	9993	1233.067714355872	131
2	10015	1236.181696438574	132
2	10018	1236.766293981824	133
2	10096	1248.535886582536	134
2	10161	1257.83865343652	135
2	10175	1259.432966706976	136
2	10181	1260.24573004442	137
2	10332	1281.90941951552	138
2	10334	1282.179707603958	139
2	10515	1308.529592353888	140
2	10539	1312.02526437614	141
2	10559	1315.60849202612	142
2	10617	1322.82972184982	143
2	10669	1330.05095167352	144
2	10748	1342.08633471302	145
2	10848	1355.994995771961	146
2	10852	1356.52879436042	147
2	10887	1362.032439748096	148
2	10946	1371.535056438909	149
2	10974	1375.189265433168	150
2	10979	1375.420071605646	151
2	11171	1403.908260333464	152
2	11174	1404.441854638048	153
2	11208	1408.722413549264	154
2	11303	1422.343181376236	155
2	11325	1425.925268773227	156
2	11327	1426.412898263968	157
2	11330	1426.693899855214	158
2	11411	1438.729282894714	159
2	11588	1464.775420440597	160
2	11614	1468.728314579075	161
2	11683	1478.920489600556	162
2	11709	1481.844742360016	163
2	11755	1488.510709667944	164
2	11819	1498.186749313802	165
2	11847	1501.8426442838	166
2	11877	1505.815269440041	167
2	11918	1511.976488938814	168
2	11922	1513.036499263741	169
2	12074	1535.17248082344	170
2	12149	1546.360738942074	171
2	12170	1549.45074256912	172
2	12174	1549.931658397504	173
2	12179	1550.245754108811	174
2	12218	1555.877677223671	175
2	12250	1560.691830439471	176
2	12260	1561.900799609022	177
2	12305	1568.50231736308	178
2	12315	1570.320136871071	179
2	12365	1577.44086027597	180
2	12385	1580.210203645408	181
2	12590	1608.833362597471	182
2	12635	1615.399536126404	183
2	12915	1657.30264048288	184
2	12917	1658.176187350299	185
2	12975	1666.796209110921	186
2	12993	1668.491826982	187
2	13033	1675.025723605599	188
2	13045	1675.197804163776	189
2	13088	1682.336269777869	190
2	13100	1684.348234251464	191
2	13102	1684.654030037199	192
2	13179	1695.155696213712	193
2	13449	1734.014485105751	194
2	13462	1736.726482112187	195
3	0	0	0
3	157	2	5
3	161	2	4
3	168	6.394208725184	3
3	186	8.665967307928	2
3	189	8.894869812506	1
3	190	9.44561983383	2
3	191	9.44561983383	3
3	199	10.788417450368	2
3	203	10.947581840448	1
3	208	11.85269644173	0
3	233	13.839828559014	1
3	236	14.577986031153	2
3	246	15.331934615856	1
3	249	15.789739625012	0
3	253	16.111587141758	1
3	255	16.340489646336	2
3	259	16.89123966766	3
3	260	16.89123966766	4
3	264	17.021939496801	3
3	267	17.215650167304	2
3	276	18.234037284198	3
3	278	18.393201674278	4
3	281	18.518663749658	3
3	291	19.161772782426	2
3	295	19.29831627556	3
3	298	19.710352228476	4
3	303	19.830341997766	3
3	307	19.895163680896	2
3	313	20.347922949997	3
3	318	20.776254834397	4
3	322	20.776254834397	3
3	324	20.776254834397	2
3	327	20.925740357558	1
3	330	21.285448392844	2
3	339	21.997901923784	1
3	340	22.023605864983	2
3	353	22.549655132792	1
3	359	22.777554449686	2
3	363	23.235359458842	3
3	366	23.366403481521	4
3	370	23.557206975588	5
3	372	23.786109480166	6
3	378	24.33685950149	5
3	379	24.33685950149	6
3	380	24.467559330631	5
3	386	24.661270001134	6
3	390	24.742131675181	5
3	394	24.842718425799	6
3	403	25.679657118028	5
3	407	25.838821508108	6
3	411	25.964283583488	5
3	416	26.607392616256	6
3	417	26.74393610939	5
3	421	27.155972062306	6
3	425	27.275961831596	5
3	426	27.340783514726	6
3	438	27.793542783827	5
3	442	28.221874668227	6
3	443	28.221874668227	5
3	444	28.221874668227	6
3	445	28.371360191388	5
3	450	28.663869231712	4
3	453	28.731068226674	5
3	456	28.842745521344	4
3	464	29.443521757614	5
3	467	29.458648429366	4
3	468	29.469225698813	5
3	477	29.750694612992	4
3	485	29.975084623122	5
3	487	29.995274966622	6
3	495	30.223174283516	5
3	497	30.360431995307	4
3	501	30.680979292672	5
3	503	30.812023315351	6
3	507	31.002826809418	5
3	511	31.136433814995	4
3	523	31.78247933532	5
3	527	31.913179164461	6
3	533	32.187751509011	5
3	536	32.431300334608	4
3	549	33.125276951858	5
3	555	33.219099923251	4
3	558	33.409903417318	5
3	566	34.18955594322	6
3	578	34.721581665426	5
3	582	34.809428182422	4
3	592	35.239162617657	5
3	603	35.667494502057	6
3	606	35.798194331198	5
3	607	35.816980025218	6
3	610	36.109489065542	5
3	613	36.176688060504	6
3	614	36.288365355174	5
3	622	36.47434906253	4
3	626	36.889141591444	5
3	627	36.904268263196	6
3	629	36.914845532643	5
3	632	37.11294560085	4
3	634	37.196314446822	5
3	636	37.420704456952	6
3	639	37.668794117346	5
3	646	37.806051829137	6
3	656	38.074571109957	5
3	658	38.126599126502	6
3	667	38.448446643248	5
3	671	38.582053648825	6
3	677	39.138350015771	5
3	680	39.22809916915	6
3	684	39.633371342841	5
3	687	39.876920168438	6
3	694	40.239817017768	5
3	698	40.570896785688	6
3	699	40.664719757081	5
3	703	40.855523251148	6
3	724	41.995803847568	5
3	727	42.167201499256	6
3	729	42.255048016252	5
3	736	42.604480577592	4
3	737	42.684782451487	5
3	739	42.762105425576	4
3	748	43.243814165028	5
3	755	43.369218875036	4
3	759	43.555108899372	5
3	762	43.733985189004	6
3	765	43.91996889636	5
3	767	44.334761425274	6
3	768	44.360465366473	5
3	769	44.55856543468	6
3	770	44.641934280652	5
3	775	45.114413951176	6
3	778	45.220896446688	5
3	785	45.520190943787	6
3	790	45.894066477078	5
3	799	46.583969849601	6
3	802	46.73790920224	5
3	805	47.078991176671	6
3	809	47.440124066109	5
3	814	47.685436851598	6
3	825	48.110339590911	5
3	837	48.661771155496	4
3	841	49.441423681398	5
3	847	49.700667850082	6
3	851	49.785507828992	5
3	853	50.035049662488	4
3	855	50.050100411422	5
3	857	50.130402285317	6
3	859	50.207725259406	5
3	862	50.264088687542	4
3	867	50.504549412414	5
3	873	50.689433998858	6
3	876	50.814838708866	5
3	881	51.000728733202	6
3	884	51.36558873019	5
3	886	51.806085200303	6
3	888	52.087554114482	5
3	894	52.413612148804	4
3	899	52.666516280518	5
3	906	53.339686310908	6
3	910	53.585683016819	5
3	917	54.18352903607	6
3	923	54.885743899939	5
3	930	55.555959424741	6
3	932	55.636915609737	5
3	940	55.746762918808	4
3	946	56.107390989326	5
3	956	56.887043515228	6
3	960	57.158958500048	5
3	963	57.231127662822	6
3	968	57.288808917452	5
3	970	57.480669496318	6
3	972	57.495720245252	5
3	974	57.653345093236	6
3	978	57.709708521372	5
3	979	57.950169246244	6
3	985	58.260458542696	5
3	991	58.81120856402	6
3	998	59.533173948312	5
3	999	59.859231982634	6
3	1001	60.112136114348	5
3	1009	60.76928180706	6
3	1013	61.031302850649	5
3	1028	61.993705771352	4
3	1030	62.331363733769	5
3	1037	63.082535443567	6
3	1040	63.192382752638	5
3	1045	63.553010823156	6
3	1050	63.693061559464	5
3	1056	64.053828312554	4
3	1061	64.604578333878	5
3	1067	64.657073848702	4
3	1068	64.734428751282	5
3	1072	64.941340079082	6
3	1076	65.155328355202	5
3	1079	65.375069350408	4
3	1082	65.489612051467	3
3	1092	65.706078376526	4
3	1094	65.901648004383	5
3	1101	65.995470975776	4
3	1110	66.978793782142	5
3	1119	67.557755948178	6
3	1129	68.476922684479	5
3	1149	69.439325605182	6
3	1155	69.776983567599	5
3	1162	70.638002586468	6
3	1171	70.94869812506	5
3	1172	71.138681393294	6
3	1175	71.442771114915	5
3	1177	71.499448146384	6
3	1183	72.050198167708	5
3	1184	72.102693682532	6
3	1186	72.180048585112	5
3	1189	72.600948189032	6
3	1191	72.605775731936	5
3	1194	72.820689184238	6
3	1197	72.935231885297	5
3	1199	73.151698210356	6
3	1201	73.216700799476	5
3	1203	73.347267838213	6
3	1207	73.441090809606	5
3	1211	73.545758001194	4
3	1228	74.424413615972	5
3	1239	75.325640387208	4
3	1246	75.869361360198	3
3	1251	75.922542518309	4
3	1255	76.166380399029	5
3	1262	77.222603401429	6
3	1276	78.247335487706	5
3	1278	78.39431795889	6
3	1292	78.888390948745	5
3	1298	79.495818001538	6
3	1299	79.625668418942	5
3	1308	80.051395565766	6
3	1317	80.380851719127	5
3	1320	80.662320633306	6
3	1321	80.886710643436	5
3	1322	80.991377835024	6
3	1333	81.870033449802	5
3	1336	81.991607695136	4
3	1344	82.528236564032	3
3	1356	83.368162352139	4
3	1359	83.534831185884	3
3	1360	83.612000232859	4
3	1376	84.738437750072	3
3	1382	85.692955321536	4
3	1389	86.334010782575	5
3	1397	87.071288252772	6
3	1409	87.826471552957	5
3	1414	88.332330477266	6
3	1427	89.012303690679	5
3	1433	89.315653283632	6
3	1437	89.411947642217	5
3	1439	89.478364860672	4
3	1453	90.813782185969	5
3	1455	91.057620066689	6
3	1465	91.462603185257	5
3	1471	91.633307562578	4
3	1491	93.138575155366	5
3	1497	93.296962808954	4
3	1499	93.779630616405	5
3	1503	93.826456906479	4
3	1520	95.272091386787	5
3	1525	95.323542310992	4
3	1534	95.560081926733	3
3	1541	96.457923524509	4
3	1544	96.506418664386	3
3	1553	96.857567476047	4
3	1557	97.020255687965	3
3	1567	98.259402019799	4
3	1574	98.908223019087	5
3	1593	100.423400244928	4
3	1598	100.584194989196	5
3	1602	101.225250450235	6
3	1605	101.315299626987	5
3	1613	102.028492472645	4
3	1623	102.717711220617	5
3	1635	103.399972915874	4
3	1641	103.903543358339	5
3	1645	104.303187309877	6
3	1648	104.433887139018	5
3	1664	105.398348204996	4
3	1670	105.705021853629	5
3	1680	106.353842852917	6
3	1700	108.029814823026	5
3	1702	108.318902305755	4
3	1708	108.655476926848	3
3	1710	108.760919460817	4
3	1722	109.370982085376	3
3	1729	110.163331054447	4
3	1736	110.943663471528	3
3	1741	111.349163192169	4
3	1749	111.879506972848	5
3	1768	113.150641687459	6
3	1775	113.846861868454	5
3	1791	115.044681254611	4
3	1796	115.321444234776	3
3	1797	115.475434656856	4
3	1804	116.206539294647	5
3	1817	117.608950888277	6
3	1831	118.794783025999	5
3	1845	119.325126806678	6
3	1851	120.016027496177	5
3	1857	120.616722689506	4
3	1868	121.292481702284	5
3	1877	121.987411542704	4
3	1881	122.921054490686	5
3	1890	123.606995537786	4
3	1892	123.652159128477	5
3	1905	124.830180711977	4
3	1911	125.177496869021	3
3	1924	126.107656625108	2
3	1925	126.240402859829	3
3	1932	127.266145766272	2
3	1933	127.461647330007	3
3	1940	128.44320482745	2
3	1945	128.653378850632	1
3	1947	128.738101536114	2
3	1963	130.366674324516	3
3	1968	131.097778962307	4
3	1978	132.276197964178	3
3	1984	132.623116702851	2
3	1991	133.002526437614	1
3	1997	133.686022693659	2
3	2007	134.907267163837	3
3	2014	135.31934615856	2
3	2027	136.161213130915	1
3	2028	136.183721369944	2
3	2032	136.21372760672	1
3	2037	137.314343771737	0
3	2042	137.812294158346	1
3	2046	137.848597738298	0
3	2052	138.543398796137	1
3	2069	139.721420379637	0
3	2086	141.131642527489	1
3	2094	141.985313466488	0
3	2099	142.352886997667	1
3	2112	143.404951193644	0
3	2115	143.629341203774	1
3	2130	145.161309447168	0
3	2134	145.257913992176	1
3	2144	145.989018629967	2
3	2176	148.577262361319	3
3	2180	148.651280774416	2
3	2185	149.798506831497	3
3	2188	149.874033796704	2
3	2190	149.975462662968	1
3	2195	150.759948959089	0
3	2201	151.074961037604	1
3	2219	152.703533826006	2
3	2229	153.434638463797	3
3	2240	154.108891287616	2
3	2244	154.394180301352	1
3	2260	156.022882195149	2
3	2271	157.244126665327	3
3	2274	157.644064130178	2
3	2286	158.520580871434	3
3	2292	160.149153659836	4
3	2297	160.478877459074	3
3	2304	160.880258297627	4
3	2313	161.529079296915	3
3	2316	161.983215390272	2
3	2322	162.885954066974	1
3	2326	163.056473128064	0
3	2330	163.468502028979	1
3	2336	164.689746499157	2
3	2349	165.966200705264	3
3	2359	167.476875500144	2
3	2360	167.594773493666	3
3	2366	167.879611511112	2
3	2369	168.325878131457	3
3	2373	168.6491826982	2
3	2384	170.107183890674	1
3	2389	170.914121862809	2
3	2402	172.004054968512	1
3	2403	172.135366332987	2
3	2407	172.514260498574	1
3	2408	173.411820539094	2
3	2416	174.37174531265	1
3	2421	174.921337106474	0
3	2425	175.040393327496	1
3	2431	175.315150006128	0
3	2433	175.771497965287	1
3	2436	176.383190944034	0
3	2451	178.359741696639	1
3	2455	178.83540025065	0
3	2458	179.580986166817	1
3	2461	179.735490322274	0
3	2468	180.857440372924	1
3	2472	180.95163680896	0
3	2491	182.486013161326	1
3	2495	183.217117799117	2
3	2503	184.549643538074	1
3	2514	185.805361530469	2
3	2527	186.956720145974	1
3	2529	187.026606000647	2
3	2533	188.161484937662	1
3	2536	188.303060206754	2
3	2548	189.363796753874	1
3	2555	189.899218649408	0
3	2556	189.931632995156	1
3	2560	190.662737632947	2
3	2580	193.250981364299	3
3	2585	194.177949969674	2
3	2588	194.375460917598	1
3	2589	194.472225834477	2
3	2596	195.056354750168	1
3	2602	195.748680040584	2
3	2616	197.011436953416	1
3	2624	197.377252828986	2
3	2627	198.108357466777	3
3	2633	198.846800489856	2
3	2635	198.992103185474	1
3	2643	200.696601198129	2
3	2650	201.399179793374	1
3	2655	201.917845668307	2
3	2659	201.951224562674	1
3	2662	201.97901923784	0
3	2676	203.194299874414	1
3	2687	204.822872662816	2
3	2690	205.553977300607	3
3	2693	205.799854403784	2
3	2696	206.030506417809	1
3	2698	206.213333009174	0
3	2712	208.142221031959	1
3	2719	208.644986545768	0
3	2729	209.363465502137	1
3	2733	209.915521584546	0
3	2739	210.639919708244	1
3	2742	211.027486224974	0
3	2743	212.268492496646	1
3	2751	212.999597134437	2
3	2754	213.434562832874	1
3	2773	215.310953853696	0
3	2775	215.587840865789	1
3	2779	215.740964187686	0
3	2788	216.809085335967	1
3	2799	218.085539542074	2
3	2802	218.248716048674	1
3	2813	219.714112330476	2
3	2815	220.445216968267	3
3	2821	220.655792656574	2
3	2826	221.570567084757	1
3	2832	222.399707563552	0
3	2840	223.033460699619	1
3	2853	224.254705169797	2
3	2862	225.455582251494	1
3	2865	225.531159375904	2
3	2869	225.6895460112	1
3	2876	227.159732164306	2
3	2886	227.890836802097	3
3	2891	228.642888469552	2
3	2897	229.340597418231	1
3	2906	230.284099088174	0
3	2911	230.479080533449	1
3	2918	231.700325003627	2
3	2924	232.691175696074	1
3	2928	232.976779209734	2
3	2933	234.605351998136	3
3	2937	234.637127851648	2
3	2942	235.098252303974	1
3	2945	235.30885577748	0
3	2946	235.336456635927	1
3	2949	235.582333739104	0
3	2967	237.924700367279	1
3	2976	239.145944837457	2
3	2983	240.422399043564	3
3	2986	240.953524205256	2
3	2998	241.974823085408	1
3	2999	242.050971831966	2
3	3002	242.319482127674	1
3	3004	242.782076469757	2
3	3014	243.32044343771	1
3	3018	243.584709692096	0
3	3029	245.370320201109	1
3	3034	246.591564671287	2
3	3039	247.868018877394	3
3	3058	249.496591665796	4
3	3061	249.741941655624	3
3	3065	250.215313250216	2
3	3066	250.227696303587	3
3	3070	250.275095485294	2
3	3076	252.532291532544	1
3	3081	252.650688418653	0
3	3085	252.815940034939	1
3	3088	253.15916863984	0
3	3095	254.037184505117	1
3	3103	255.313638711224	2
3	3114	256.53570358539	1
3	3115	256.942211499626	2
3	3119	257.110183062722	1
3	3121	257.553377365024	0
3	3123	257.673316137417	1
3	3137	260.261559868769	2
3	3140	260.420718752127	1
3	3143	261.02538647405	0
3	3148	261.482804338947	1
3	3151	261.947586090208	0
3	3159	262.759258545054	1
3	3168	263.43246308195	0
3	3185	264.387831333456	1
3	3187	265.118935971247	2
3	3190	265.83953968985	1
3	3196	267.707179702599	2
3	3199	268.111930481688	1
3	3202	268.190749085601	0
3	3214	268.928424172777	1
3	3222	270.204878378884	2
3	3226	270.42745521344	1
3	3232	270.899922687734	0
3	3233	271.833451167286	1
3	3236	272.075764252338	0
3	3237	272.564555805077	1
3	3241	273.06076951355	0
3	3252	275.152799536429	1
3	3264	276.374044006607	2
3	3266	277.650498212714	3
3	3270	277.79479250024	2
3	3276	279.279071001116	3
3	3280	279.375037053888	2
3	3285	280.010175638907	3
3	3299	281.970626932976	2
3	3300	282.598419370259	3
3	3304	282.68907594515	2
3	3308	283.819663840437	3
3	3312	283.918629716128	2
3	3323	285.096118046544	3
3	3326	285.09615255305	2
3	3330	286.724690834946	3
3	3333	287.455795472737	4
3	3336	287.50322916095	3
3	3339	287.615824919286	2
3	3348	288.322618894336	1
3	3354	288.636594240904	0
3	3362	290.044039204089	1
3	3364	291.265283674267	2
3	3367	291.500840086023	1
3	3377	292.541737880374	2
3	3381	294.170310668776	3
3	3390	294.72445898465	2
3	3394	294.901415306567	3
3	3398	295.302561548832	2
3	3410	297.270200734784	1
3	3413	297.489659037919	2
3	3417	298.479401937758	1
3	3418	298.710903508097	2
3	3427	299.987357714204	3
3	3435	301.615930502606	4
3	3444	301.96852885676	3
3	3445	302.347035140397	4
3	3457	304.35276541625	3
3	3462	304.935278871749	4
3	3467	305.374271750264	3
3	3470	306.156523341927	4
3	3474	306.217782575232	3
3	3479	307.432977548034	4
3	3492	308.634496164688	3
3	3495	309.061550336436	4
3	3499	309.16691863205	3
3	3500	309.792654974227	4
3	3515	312.26914156277	3
3	3516	312.380898705579	4
3	3520	313.602143175757	5
3	3526	313.98107184785	4
3	3533	314.810931086445	3
3	3534	314.878597381864	4
3	3541	315.16536441568	3
3	3544	315.300463472616	2
3	3550	316.507170170266	3
3	3552	317.238274808057	4
3	3557	318.695946253182	3
3	3560	318.79522506365	2
3	3569	319.826518539409	3
3	3577	321.047763009587	4
3	3583	321.966430780544	3
3	3584	322.324217215694	4
3	3587	322.580961419919	3
3	3599	323.952790004096	4
3	3604	324.683894641887	5
3	3613	326.01645488735	4
3	3616	326.058881187782	3
3	3619	327.272138373239	4
3	3625	327.860716967968	3
3	3631	328.42353149525	2
3	3633	328.493382843417	3
3	3638	328.632398088472	2
3	3639	329.769837049524	3
3	3652	330.83060810315	2
3	3654	331.398409837926	3
3	3656	332.129514475717	4
3	3676	334.23600692013	3
3	3678	334.717758207069	4
3	3688	335.64476131895	3
3	3689	335.939002677247	4
3	3697	337.215456883354	5
3	3703	338.05183792685	4
3	3706	338.121022086867	3
3	3710	338.844029671756	4
3	3712	339.575134309547	5
3	3716	339.848620812794	4
3	3733	341.964332704328	3
3	3735	342.006037253604	2
3	3738	342.008109937024	1
3	3739	342.163378040899	2
3	3743	343.384622511077	3
3	3752	344.661076717184	4
3	3755	345.27306775055	3
3	3762	345.891052420341	2
3	3764	346.289649505586	3
3	3768	346.7434906253	2
3	3772	347.020754143377	3
3	3781	348.630300012256	2
3	3785	349.608997874729	3
3	3788	349.776067587078	2
3	3793	350.08722096635	1
3	3794	350.830242344907	2
3	3804	352.106696551014	3
3	3819	353.661082753815	2
3	3820	353.735269339416	3
3	3827	354.466373977207	4
3	3833	355.296267320184	3
3	3837	357.054617708559	4
3	3840	357.30845079005	3
3	3844	358.275862178737	4
3	3856	359.552316384844	5
3	3862	359.90327361792	4
3	3868	360.533230250312	3
3	3869	361.180889173246	4
3	3876	361.911993811037	5
3	3881	361.962234628112	4
3	3883	362.12260400585	3
3	3891	364.500237542389	4
3	3896	365.316128254026	3
3	3901	365.721482012567	4
3	3910	366.93675722165	3
3	3912	366.997936218674	4
3	3918	367.428100062818	3
3	3919	368.626509007076	4
3	3923	368.62820193604	3
3	3926	368.850855458368	2
3	3928	369.201143420763	1
3	3934	369.34383382955	0
3	3936	369.357613644867	1
3	3950	371.945857376219	2
3	3959	373.0861585875	1
3	3961	373.167101846397	2
3	3964	374.15798704535	1
3	3971	374.443556052504	2
3	3978	375.294169243968	1
3	3979	376.072128840906	2
3	3982	376.197012944992	1
3	3989	376.803233478697	2
3	3995	377.798437298816	1
3	3997	378.97214026115	0
3	3998	379.391477210049	1
3	4009	380.612721680227	2
3	4015	380.856188920974	1
3	4018	381.21783968783	0
3	4024	381.889175886334	1
3	4029	383.517748674736	2
3	4032	383.78629347695	1
3	4033	384.248853312527	2
3	4039	384.741204087711	1
3	4052	386.746019139264	0
3	4053	386.837097043879	1
3	4060	388.058341514057	2
3	4064	388.112709500336	1
3	4069	388.626103859824	0
3	4073	389.334795720164	1
3	4077	389.379639120544	0
3	4082	390.963368508566	1
3	4086	391.694473146357	2
3	4100	393.41459990855	1
3	4106	394.282716877709	2
3	4112	395.007579312842	1
3	4115	395.292071167752	0
3	4116	395.503961347887	1
3	4120	395.693600979712	0
3	4125	396.780415553994	1
3	4136	398.22875312435	0
3	4137	398.408988342396	1
3	4142	399.140092980187	2
3	4148	400.281264754659	1
3	4150	400.63582973225	0
3	4155	401.728336711539	1
3	4162	401.95803847568	0
3	4172	402.949581181717	1
3	4178	404.226035387824	2
3	4183	404.64118282016	1
3	4188	405.44998294805	0
3	4192	405.854608176226	1
3	4194	406.585712814017	2
3	4198	406.95647402128	1
3	4204	407.85705955595	0
3	4221	409.173956545369	1
3	4227	410.395201015547	2
3	4231	411.671655221654	3
3	4234	411.93631025487	2
3	4244	413.300228010056	3
3	4249	413.588764660608	2
3	4250	414.031332647847	3
3	4256	415.07828937965	2
3	4260	415.289973091536	1
3	4268	415.69218875036	0
3	4274	416.619576379199	1
3	4281	417.840820849377	2
3	4286	419.117275055484	3
3	4292	419.706340588344	2
3	4294	419.89244259545	1
3	4296	420.139100196832	0
3	4301	420.745847843886	1
3	4303	421.476952481677	2
3	4310	422.29951920335	1
3	4319	422.587058562866	0
3	4326	424.065196213029	1
3	4338	425.286440683207	2
3	4344	426.562894889314	3
3	4354	428.191467677716	4
3	4359	428.922572315507	5
3	4371	429.52074902705	4
3	4382	431.483928341504	3
3	4383	431.510816046859	4
3	4390	432.732060517037	5
3	4396	433.321726372384	4
3	4398	434.008514723144	5
3	4401	434.33490224285	4
3	4403	435.246401255292	3
3	4406	435.28787501532	2
3	4407	435.637087511546	3
3	4415	436.368192149337	4
3	4419	436.376798187878	3
3	4426	437.715935097568	2
3	4434	438.956435880689	3
3	4440	439.14905545865	2
3	4441	440.177680350867	3
3	4446	440.431510181952	2
3	4449	441.454134556974	3
3	4459	441.953842323248	2
3	4464	443.082707345376	3
3	4468	443.271668000384	2
3	4475	443.813811983167	3
3	4486	446.37028528235	2
3	4487	446.402055714519	3
3	4493	446.901446755503	2
3	4498	447.623300184697	3
3	4506	448.619809631176	2
3	4509	448.899754390804	3
3	4513	449.3790920224	2
3	4516	450.16653781289	1
3	4517	450.528327179206	2
3	4520	450.78646192224	1
3	4534	451.259431816997	2
3	4540	453.59151510605	1
3	4545	453.847675548349	2
3	4549	454.671477088977	1
3	4551	455.068920018527	2
3	4556	455.285776939104	1
3	4562	456.345374224634	2
3	4570	457.061407625396	1
3	4576	457.973947013036	2
3	4580	458.326673862848	1
3	4588	458.705051650827	2
3	4597	461.293295382179	3
3	4607	462.514539852357	4
3	4610	463.21982153765	3
3	4611	463.790994058464	4
3	4619	463.956277437902	3
3	4631	465.419566846866	4
3	4635	466.150671484657	5
3	4643	467.274255703296	4
3	4651	468.61771155496	3
3	4652	468.738915216009	4
3	4660	469.960159686187	5
3	4665	470.44105136135	4
3	4671	470.851147250408	3
3	4672	471.236613892294	4
3	4681	472.865186680696	5
3	4684	472.86960489904	4
3	4686	473.596291318487	5
3	4696	475.25520457715	4
3	4700	475.283678862888	3
3	4704	476.184535049839	4
3	4708	476.221837543744	3
3	4717	477.405779520017	4
3	4723	477.746017062914	3
3	4726	478.682233726124	4
3	4736	480.06935779295	3
3	4737	480.310806514526	4
3	4743	481.041911152317	5
3	4752	481.949646170816	4
3	4756	482.47643440085	3
3	4760	483.630154883669	4
3	4768	484.64088687542	3
3	4769	484.851399353847	4
3	4772	484.88351100875	3
3	4775	485.169419384192	2
3	4777	485.751598422873	1
3	4781	486.127853559954	2
3	4794	487.756426348356	3
3	4796	488.487530986147	4
3	4806	489.63661358961	3
3	4816	491.075774717499	4
3	4825	492.10474083245	3
3	4830	492.297019187677	4
3	4835	493.521628756347	3
3	4836	493.573473393784	4
3	4840	494.11700122464	3
3	4842	494.51181744035	2
3	4847	494.84064852496	1
3	4849	495.202046182186	2
3	4853	495.281580786672	1
3	4854	495.933150819977	2
3	4860	496.91889404825	1
3	4872	498.430626500432	0
3	4873	498.521394551329	1
3	4880	499.742639021507	2
3	4887	501.019093227614	3
3	4890	501.291659089821	2
3	4893	501.73304726405	1
3	4896	501.9475480946	0
3	4899	502.647666016016	1
3	4903	503.064583065088	0
3	4910	503.378770653807	1
3	4915	504.14012387195	0
3	4924	505.967014385159	1
3	4929	507.188258855337	2
3	4939	508.464713061444	3
3	4944	508.613515402528	2
3	4955	510.093285849846	3
3	4960	510.824390487637	4
3	4963	511.36135369565	3
3	4969	512.220366125444	2
3	4976	513.412634218989	3
3	4983	514.633878689167	4
3	4995	515.910332895274	5
3	5001	516.17550691145	4
3	5004	516.81169215088	3
3	5008	517.538905683676	4
3	5013	518.270010321467	5
3	5028	520.858254052819	6
3	5032	520.959746745984	5
3	5042	521.945450018384	4
3	5043	522.079498522997	5
3	5051	523.355952729104	6
3	5054	523.39673673515	5
3	5057	524.601750090243	4
3	5058	524.984525517506	5
3	5067	525.600109601248	4
3	5069	525.715630155297	5
3	5073	525.80381334305	4
3	5083	528.405366579814	5
3	5086	528.48676525698	4
3	5089	528.611417326312	3
3	5096	529.525118356827	4
3	5100	529.907328586432	3
3	5108	530.84235656898	4
3	5115	532.430145351336	5
3	5119	532.904975562962	4
3	5122	533.161249989127	5
3	5129	534.388527051616	4
3	5133	535.27738463424	3
3	5135	535.43211977465	2
3	5142	535.850986413644	3
3	5152	536.970738190657	4
3	5156	538.28797640281	5
3	5166	538.85491042688	4
3	5169	539.799845375468	3
3	5170	539.875765185166	4
3	5173	540.141810757191	3
3	5176	540.24627299045	2
3	5178	540.606869822957	3
3	5185	541.943351942168	2
3	5199	543.296606247474	3
3	5206	544.416358024487	4
3	5209	545.06042620625	3
3	5210	545.73359623664	4
3	5217	546.694715187974	3
3	5218	547.321385018996	4
3	5222	547.46750281415	3
3	5230	547.802492267328	2
3	5232	547.911841090665	1
3	5234	548.052489656787	2
3	5245	549.87457942205	1
3	5249	550.742226081304	2
3	5255	551.796856257402	1
3	5256	551.861977858317	2
3	5262	552.28165602995	1
3	5264	553.17921607047	2
3	5271	553.58958500048	1
3	5278	554.767004852826	2
3	5285	555.275286558024	1
3	5286	555.498109490617	2
3	5289	555.681871424139	1
3	5295	556.359570677536	0
3	5305	558.187845915134	1
3	5313	559.307597692147	2
3	5316	559.50288585365	1
3	5322	560.484454812986	0
3	5323	560.6248359043	1
3	5334	561.90996246155	0
3	5338	562.212624686656	1
3	5341	562.943729324447	2
3	5351	564.31703906945	1
3	5357	565.147988127904	0
3	5359	565.633465748964	1
3	5363	565.697655948224	0
3	5369	566.753217525977	1
3	5376	568.07045573813	2
3	5384	568.60722117388	1
3	5386	569.13119228525	0
3	5393	569.658244520486	1
3	5398	570.389349158277	2
3	5409	573.079085582794	3
3	5413	574.198837359807	4
3	5428	575.106947257824	3
3	5435	575.51607557196	4
3	5443	577.103864354316	5
3	5445	577.834968992107	6
3	5455	578.991962424561	5
3	5460	580.300315406494	4
3	5461	580.524705416624	5
3	5472	581.644457193637	6
3	5481	582.707392014394	5
3	5486	582.876977591298	4
3	5488	582.96169540579	5
3	5496	584.549484188146	6
3	5503	586.437582258391	5
3	5515	587.521545230194	4
3	5519	587.970325250454	5
3	5522	588.06393406301	4
3	5525	588.605123097664	3
3	5531	590.153011848224	4
3	5534	590.40731523962	5
3	5538	590.647007924772	4
3	5549	592.335698445994	3
3	5552	592.540401469568	2
3	5555	593.883202092221	3
3	5561	594.532023091509	2
3	5572	595.271090405592	1
3	5573	595.415945084284	2
3	5583	597.598631682054	3
3	5588	597.85293507345	4
3	5592	598.417038258246	3
3	5608	601.328821926051	4
3	5613	601.487983310016	3
3	5616	601.853673688022	2
3	5619	601.93705771352	1
3	5623	602.302053424983	0
3	5628	602.861564918114	1
3	5640	605.044251515884	2
3	5642	605.29855490728	3
3	5659	608.603025021448	2
3	5663	608.774441759881	3
3	5671	609.185234701294	2
3	5673	610.072083758457	1
3	5677	610.307184751944	2
3	5681	610.435565150464	1
3	5684	612.489871349714	2
3	5686	612.74417474111	3
3	5698	613.957098925194	2
3	5709	615.268992329376	1
3	5716	616.220061593711	2
3	5720	616.406464524994	1
3	5722	617.752804585774	2
3	5725	617.842114091931	1
3	5727	617.878492830112	0
3	5738	619.935491183544	1
3	5744	620.18979457494	2
3	5755	621.220617740794	1
3	5766	622.53828312554	0
3	5772	623.665681427541	1
3	5774	625.198424419604	2
3	5791	627.381111017374	3
3	5793	627.63541440877	4
3	5802	628.33072883136	3
3	5807	628.600926945232	2
3	5810	629.433152938046	1
3	5816	630.848924172394	0
3	5820	631.111301261371	1
3	5825	632.644044253434	2
3	5838	634.826730851204	3
3	5841	635.0810342426	4
3	5847	635.26689425316	3
3	5851	635.663077388194	2
3	5858	636.328022750552	1
3	5866	637.278310671808	0
3	5872	638.556921095201	1
3	5879	640.089664087264	2
3	5888	641.152205092353	1
3	5891	641.932861561088	0
3	5892	642.272350685034	1
3	5899	642.52665407643	2
3	5902	642.884307211894	1
3	5913	645.03722025909	0
3	5916	646.002540929031	1
3	5922	646.225892512256	0
3	5926	647.535283921094	1
3	5929	647.698460427694	0
3	5947	649.717970518864	1
3	5949	649.97227391026	2
3	5952	650.105537035594	1
3	5968	653.032162631584	0
3	5970	653.448160762861	1
3	5979	654.919690251394	0
3	5980	654.980903754924	1
3	5984	655.173474352704	0
3	5999	657.163590352694	1
3	6002	657.326766859294	0
3	6004	657.41789374409	1
3	6018	659.733843467194	0
3	6023	660.893780596691	1
3	6032	661.930763484872	0
3	6036	662.426523588754	1
3	6043	663.907502000576	0
3	6055	664.609210186524	1
3	6060	664.86351357792	2
3	6071	666.955073290894	1
3	6073	668.339400430521	2
3	6076	668.347311259512	1
3	6079	668.5967307928	0
3	6085	669.872143422584	1
3	6098	670.802371813082	0
3	6104	672.054830020354	1
3	6108	672.30913341175	2
3	6116	673.0686380336	1
3	6118	674.176303114594	0
3	6131	675.785020264351	1
3	6138	677.317763256414	2
3	6151	679.2036897041	1
3	6153	679.397414982688	0
3	6158	679.500449854184	1
3	6160	679.75475324558	2
3	6168	681.610766312	1
3	6174	681.928665408656	0
3	6178	683.230640098181	1
3	6187	684.0178429199	0
3	6195	684.763383090244	1
3	6205	686.4249195278	0
3	6210	686.946069688014	1
3	6214	687.20037307941	2
3	6219	688.185832433056	1
3	6223	688.594632716584	0
3	6229	690.676259932011	1
3	6233	690.963801714496	0
3	6250	692.209002924074	1
3	6258	693.6461493515	0
3	6259	694.391689521844	1
3	6261	694.64599291324	2
3	6268	695.260600024512	1
3	6274	696.974249883424	0
3	6282	698.121879765841	1
3	6296	699.654622757904	2
3	6301	699.911383554944	1
3	6306	700.8673791752	0
3	6309	701.837309355674	1
3	6314	702.09161274707	2
3	6335	705.567499599671	3
3	6341	707.100242591734	4
3	6344	707.197462926882	3
3	6347	707.281270834064	2
3	6353	708.592534640368	1
3	6356	708.858965395392	0
3	6360	709.282929189504	1
3	6362	709.5372325809	2
3	6372	711.082478093619	1
3	6385	713.013119433501	2
3	6390	714.545862425564	3
3	6401	715.088417904582	2
3	6404	715.258501948296	1
3	6408	716.728549023334	2
3	6410	716.98285241473	3
3	6417	717.80654723584	2
3	6438	720.458739267331	3
3	6445	721.924469256224	2
3	6446	721.991482259394	3
3	6457	724.174168857164	4
3	6462	724.42847224856	5
3	6465	724.716724336182	4
3	6474	725.96133031313	3
3	6487	727.904359101161	4
3	6495	728.590436564152	3
3	6496	729.437102093224	4
3	6501	730.507553927304	3
3	6512	731.619788690994	4
3	6515	731.87409208239	5
3	6518	731.937954159882	4
3	6523	732.856200125636	3
3	6528	734.345030767782	2
3	6537	735.25640387208	1
3	6538	735.349978934991	2
3	6550	736.752107375682	1
3	6551	736.882721927054	2
3	6564	739.065408524824	3
3	6568	739.31971191622	4
3	6572	739.751069938142	3
3	6574	740.916337135264	2
3	6580	741.566260591482	1
3	6585	741.922371180008	0
3	6591	742.795598768821	1
3	6599	743.973337199382	0
3	6601	744.328341760884	1
3	6606	744.649292757184	0
3	6618	746.511028358654	1
3	6623	746.645939750648	0
3	6624	746.76533175005	1
3	6634	748.588338487936	0
3	6644	750.241218602651	1
3	6654	751.773961594714	2
3	6658	753.540809563154	1
3	6661	753.596874597632	0
3	6673	753.956648192484	1
3	6677	754.21095158388	2
3	6681	755.254305795864	1
3	6686	756.008720238882	0
3	6693	757.686838436481	1
3	6696	757.702660094463	0
3	6704	759.219581428544	1
3	6714	761.402268026314	2
3	6722	761.65657141771	3
3	6727	761.920273103792	2
3	6737	763.229950062582	1
3	6747	765.132458270311	2
3	6753	765.637026670482	1
3	6754	766.665201262374	2
3	6760	767.281589486368	1
3	6764	767.330549188166	0
3	6770	768.847887860144	1
3	6774	769.10219125154	2
3	6790	771.492038278528	1
3	6796	772.578078104141	2
3	6804	774.110821096204	3
3	6811	774.225419000672	2
3	6814	775.252207719648	1
3	6816	775.265333102082	0
3	6822	776.293507693974	1
3	6827	776.54781108537	2
3	6834	777.127735928148	1
3	6844	780.023697937971	2
3	6850	780.439620118976	1
3	6857	781.120288813178	0
3	6858	781.556440930034	1
3	6865	781.918175027576	0
3	6874	783.739127527804	1
3	6877	783.9934309192	2
3	6888	784.893639533682	1
3	6890	784.897766261622	0
3	6900	787.469317771801	1
3	6907	788.584142335504	0
3	6910	789.002060763864	1
3	6917	789.387201959424	0
3	6927	791.184747361634	1
3	6932	791.43905075303	2
3	6945	793.646841837472	1
3	6954	794.91002843819	0
3	6955	794.914937605631	1
3	6959	795.250109643432	0
3	6963	796.447680597694	1
3	6966	796.552811761833	0
3	6985	798.630367195464	1
3	6987	798.88467058686	2
3	6995	800.43782692857	1
3	6997	801.743175788982	0
3	7004	802.360557439461	1
3	7017	803.893300431524	2
3	7020	804.150252396882	1
3	7022	804.322842095307	0
3	7028	806.075987029294	1
3	7030	806.33029042069	2
3	7033	806.557329004782	1
3	7039	807.28236564032	0
3	7059	809.806177273291	1
3	7066	811.338920265354	2
3	7069	811.410781089792	1
3	7071	812.092872428781	0
3	7079	813.521606863124	1
3	7082	813.77591025452	2
3	7092	815.248011567216	1
3	7104	815.977887595518	0
3	7109	817.251797107121	1
3	7117	818.784540099184	2
3	7123	819.862902762255	1
3	7133	820.967226696954	2
3	7135	821.22153008835	3
3	7145	822.489507688214	2
3	7154	824.40630291376	1
3	7156	824.697416940951	2
3	7160	825.177529321216	1
3	7170	826.230159933014	2
3	7180	828.412846530784	3
3	7188	828.66714992218	4
3	7194	829.38437750072	3
3	7199	830.819923138684	2
3	7206	832.143036774781	3
3	7209	833.194720364128	2
3	7212	833.226999746584	1
3	7216	833.675779766844	2
3	7224	834.125111161664	1
3	7230	835.245913491	0
3	7238	835.858466364614	1
3	7240	836.11276975601	2
3	7244	836.279247313226	1
3	7251	838.041152962384	0
3	7258	839.588656608611	1
3	7267	841.121399600674	2
3	7275	841.911880798928	1
3	7277	841.983137814496	0
3	7291	843.304086198444	1
3	7296	843.55838958984	2
3	7308	847.034276442441	3
3	7320	848.374551220658	2
3	7324	848.567019434504	3
3	7334	850.068986938238	2
3	7335	850.749706032274	3
3	7338	850.771555264864	2
3	7341	850.781627828558	1
3	7345	851.00400942367	2
3	7360	854.479896276271	3
3	7375	855.243815414784	2
3	7378	856.012639268334	3
3	7385	856.963856750744	2
3	7388	858.195325866104	3
3	7390	858.4496292575	4
3	7393	858.713054429625	3
3	7404	860.409934260158	2
3	7407	860.967856683008	1
3	7416	861.925516110101	2
3	7423	863.458259102164	3
3	7426	863.475536217656	2
3	7429	863.85872656325	1
3	7438	865.640945699934	2
3	7441	865.882612825556	1
3	7443	865.89524909133	2
3	7449	866.483084763099	1
3	7455	868.3483901656	0
3	7465	869.371135943931	1
3	7472	869.915438523456	0
3	7481	870.903878935994	1
3	7490	873.086565533764	2
3	7492	873.34086892516	3
3	7500	874.253115096573	2
3	7506	875.241717338568	1
3	7514	876.591117171287	0
3	7518	876.816755777761	1
3	7528	878.349498769824	2
3	7536	880.532185367594	3
3	7541	880.78648875899	4
3	7558	882.041696350133	3
3	7562	884.262375611591	4
3	7565	884.448772958033	3
3	7572	885.795118603654	4
3	7576	885.908160596784	3
3	7579	885.925225066336	2
3	7594	887.810602204352	1
3	7595	887.977805201424	2
3	7597	888.23210859282	3
3	7601	888.573651954424	2
3	7603	889.262926173833	1
3	7617	891.438205813274	0
3	7620	891.707995445421	1
3	7628	893.240738437484	2
3	7637	894.077079389633	1
3	7639	894.713642516704	0
3	7647	895.423425035254	1
3	7650	895.67772842665	2
3	7654	896.484155997533	1
3	7662	897.563206096995	0
3	7677	899.153615279251	1
3	7685	900.686358271314	2
3	7689	901.298309213333	1
3	7694	901.90558657028	0
3	7698	902.869044869084	1
3	7700	903.12334826048	2
3	7703	903.502059967072	1
3	7721	905.333236430469	0
3	7728	906.599235113081	1
3	7738	908.131978105144	2
3	7744	908.571553878208	1
3	7746	909.218251597206	0
3	7751	910.314664702914	1
3	7756	910.56896809431	2
3	7759	910.926615644933	1
3	7765	912.122815250792	0
3	7778	914.044854946911	1
3	7788	915.237521186136	0
3	7792	915.577597938974	1
3	7804	917.760284536744	2
3	7806	918.01458792814	3
3	7809	918.147845468633	2
3	7812	919.017685063298	1
3	7831	921.490474780741	2
3	7836	921.903488494064	1
3	7841	923.023217772804	2
3	7845	923.600929566144	1
3	7847	924.758312264154	0
3	7848	925.205904370574	1
3	7851	925.369075292333	0
3	7852	925.46020776197	1
3	7862	925.912554875804	0
3	7880	928.936094614571	1
[...]
11	2118	143.796371953569	5
11	2124	144.465411225198	6
11	2147	146.036417811674	5
11	2150	146.312825752746	4
11	2158	146.792266062626	3
11	2167	148.216582781412	4
11	2172	148.357018072339	5
11	2182	148.922761696495	6
11	2203	151.1628075546	5
11	2205	151.439215495672	6
11	2213	151.918655805552	5
11	2226	153.257647635374	4
11	2228	153.342972524338	5
11	2231	153.483407815265	6
11	2235	153.687135875132	5
11	2262	156.289197297526	6
11	2267	157.045045548478	5
11	2283	158.3840373783	6
11	2285	158.469362267264	5
11	2288	158.813525618058	6
11	2317	162.171435291404	5
11	2329	163.320655126518	6
11	2335	163.59575201019	5
11	2342	165.293030674874	4
11	2348	165.714922477643	3
11	2356	167.29782503433	4
11	2374	168.722141753116	5
11	2380	169.828749517501	6
11	2386	170.4194204178	5
11	2388	170.841312220569	6
11	2405	172.424214777256	5
11	2410	173.848531496042	6
11	2432	175.545810160726	5
11	2444	177.550604520182	6
11	2457	179.43460205268	5
11	2466	180.672199903652	6
11	2475	181.266615125156	5
11	2498	183.828810777864	4
11	2505	184.560991795606	5
11	2516	186.393004868082	6
11	2520	186.462762280634	5
11	2541	188.95520052079	6
11	2546	189.35303269045	5
11	2549	189.687381538532	6
11	2566	190.856971005818	5
11	2570	191.58915202356	6
11	2574	191.770873361774	5
11	2591	194.479422433376	6
11	2605	195.983360748744	5
11	2610	196.585026577574	4
11	2614	196.8972631047	5
11	2638	199.645388456186	4
11	2646	201.10975049167	5
11	2653	201.7114163205	6
11	2663	202.023652847626	5
11	2670	202.369221472416	6
11	2682	203.806256401274	5
11	2684	204.03959718137	4
11	2685	204.771778199112	5
11	2699	206.236140234596	6
11	2702	207.150042590552	5
11	2722	208.84609437518	4
11	2723	208.9326461442	5
11	2724	209.165986924296	6
11	2731	209.898167942038	5
11	2745	212.276432333478	6
11	2760	213.611290113184	5
11	2764	213.972484118106	6
11	2767	214.059035887126	5
11	2770	215.024557684964	6
11	2774	215.385410254382	5
11	2781	215.841639440774	4
11	2798	218.005498838368	3
11	2804	218.73767985611	4
11	2810	219.185425630052	5
11	2817	220.511799997308	6
11	2824	220.9680291837	5
11	2827	221.893504645365	6
11	2844	223.062869264474	5
11	2849	223.37668930452	4
11	2850	223.864069599036	5
11	2855	224.311815372978	6
11	2873	226.094418926626	5
11	2884	227.877022480274	4
11	2888	228.1892590074	5
11	2892	228.990459341962	6
11	2901	229.530703812698	5
11	2915	231.220808669552	6
11	2932	233.315648750326	5
11	2938	234.657093555624	6
11	2975	238.442038493252	5
11	2979	239.912405519774	4
11	3015	243.568428236178	5
11	3047	248.694817979104	6
11	3050	248.764959914656	5
11	3083	252.682172093194	4
11	3093	253.891349657582	5
11	3109	255.893020276727	4
11	3133	259.017739400508	5
11	3147	261.479873372992	4
11	3162	262.924567831176	3
11	3179	264.144129143434	4
11	3216	269.27051888636	5
11	3246	274.396908629286	6
11	3282	279.524420990944	5
11	3289	280.28199933725	4
11	3317	284.65081073387	5
11	3358	289.777200476796	6
11	3376	292.31738237675	5
11	3407	297.13153559255	4
11	3411	297.443772119676	5
11	3441	301.94568880835	4
11	3447	302.570161862602	5
11	3476	306.75984202415	4
11	3481	307.696551605528	5
11	3507	310.283882067232	4
11	3512	311.57399523995	3
11	3518	312.822941348454	4
11	3531	314.678090792416	3
11	3549	316.38814845575	2
11	3554	317.94933109138	3
11	3589	323.075720834306	4
11	3598	323.60937827945	3
11	3603	324.112946256128	2
11	3627	328.202110577232	3
11	3665	333.060528096576	2
11	3667	333.23768471105	1
11	3669	333.328500320158	2
11	3707	338.454890063084	3
11	3742	342.86599114265	2
11	3746	343.58127980601	3
11	3778	347.68014435845	2
11	3782	348.707669548936	3
11	3798	350.955691777472	2
11	3807	352.49429757425	1
11	3822	353.834059291862	2
11	3825	354.225969319072	1
11	3853	358.620178044256	0
11	3854	358.960449034788	1
11	3889	364.086838777714	2
11	3894	364.52968061375	1
11	3930	369.21322852064	2
11	3945	371.75091043745	1
11	3948	371.802804219808	0
11	3969	374.339618263566	1
11	3985	376.56506365325	0
11	4000	379.466008006492	1
11	4035	384.592397749418	2
11	4041	384.98543039536	1
11	4046	386.19337008485	0
11	4079	389.718787492344	1
11	4085	391.00752330065	0
11	4108	394.84517723527	1
11	4122	395.82167651645	0
11	4145	399.971566978196	1
11	4159	401.902449125348	0
11	4184	405.097956721122	1
11	4223	410.224346464048	2
11	4226	410.26413616385	1
11	4243	412.67121277175	0
11	4263	415.350736206974	1
11	4298	420.4771259499	2
11	4316	422.536346501056	1
11	4331	424.70659581125	0
11	4341	425.603515692826	1
11	4363	428.9275176472	0
11	4372	430.729905435752	1
11	4389	431.92782563495	0
11	4409	435.856295178678	1
11	4423	436.74197885075	0
11	4447	440.982684921604	1
11	4453	441.55613206655	0
11	4482	446.10907466453	1
11	4508	448.77736189025	0
11	4532	451.235464407456	1
11	4560	455.99859171395	0
11	4565	456.361854150382	1
11	4599	461.488243893308	2
11	4634	465.62689814555	1
11	4639	466.614633636234	2
11	4674	471.74102337916	3
11	4680	472.84812796925	2
11	4709	476.867413122086	3
11	4720	477.66228118505	2
11	4753	481.993802865012	3
11	4789	487.120192607938	4
11	4809	489.69766422455	3
11	4820	491.535756687926	2
11	4827	492.246582350864	3
11	4862	497.37297209379	4
11	4879	499.32597065615	3
11	4897	502.499361836716	4
11	4913	503.629065975328	3
11	4928	506.54720047985	2
11	4934	507.625751579642	3
11	4966	512.012164905536	2
11	4972	512.752141322568	3
11	4979	513.76843030355	2
11	5011	517.878531065494	3
11	5016	518.58258351935	2
11	5019	519.11523593795	1
11	5034	520.98966012725	0
11	5049	523.00492080842	1
11	5078	528.131310551346	2
11	5104	530.61796655885	1
11	5125	533.257700294272	2
11	5159	538.384090037198	3
11	5201	543.510479780124	4
11	5239	548.63686952305	5
11	5260	551.965361952352	4
11	5272	553.763259265976	5
11	5276	554.68873263785	4
11	5299	556.750074107776	3
11	5301	557.09580924575	2
11	5310	558.889649008902	3
11	5326	560.75377940272	2
11	5345	564.016038751828	3
11	5388	569.142428494754	4
11	5412	573.936405578272	3
11	5416	574.26881823768	4
11	5420	574.274194437998	3
11	5423	574.645237788672	2
11	5450	578.330614303456	1
11	5457	579.395207980606	2
11	5468	581.169064250504	1
11	5484	582.72482302864	0
11	5493	584.521597723532	1
11	5526	589.647987466458	2
11	5530	589.928621838094	1
11	5563	594.742775053894	0
11	5564	594.774377209384	1
11	5569	594.958803875516	0
11	5599	599.90076695231	1
11	5621	601.964004877594	0
11	5637	605.027156695236	1
11	5662	608.748543500528	0
11	5675	610.153546438162	1
11	5683	611.592311309194	0
11	5710	615.279936181088	1
11	5749	620.406325924014	2
11	5776	625.53271566694	3
11	5785	626.034770956594	2
11	5804	628.441847564494	1
11	5813	630.659105409866	2
11	5853	635.785495152792	3
11	5868	638.070153996094	2
11	5882	640.477230603994	1
11	5884	640.911884895718	2
11	5918	646.038274638644	3
11	5956	650.117762375564	2
11	5957	651.16466438157	3
11	5960	652.512613643494	2
11	5988	656.291054124496	3
11	6025	661.417443867422	4
11	6054	664.547996682994	3
11	6066	666.214788807136	2
11	6067	666.543833610348	3
11	6091	670.60899753232	2
11	6099	671.670223353274	3
11	6135	676.7966130962	4
11	6143	677.697241625588	3
11	6169	681.923002839126	4
11	6182	683.791623707872	3
11	6212	687.049392582052	4
11	6235	691.2390727436	3
11	6247	692.175782324978	4
11	6276	697.302172067904	5
11	6289	698.381851063106	4
11	6291	698.4603025673	3
11	6308	701.368458608608	2
11	6316	702.42856181083	3
11	6319	703.2744557831	2
11	6348	707.554951553756	3
11	6365	709.688347441964	2
11	6379	712.171590688118	1
11	6381	712.673611838474	0
11	6382	712.681341296682	1
11	6414	717.495494512482	0
11	6418	717.807731039608	1
11	6432	719.902571120382	0
11	6452	722.934120782534	1
11	6479	726.754129076288	0
11	6490	728.06051052546	1
11	6499	729.530877551982	0
11	6524	733.186900268386	1
11	6542	735.701710916736	0
11	6561	738.313290011312	1
11	6593	743.439679754238	2
11	6629	748.566069497164	3
11	6650	751.194567023082	2
11	6663	753.601643630982	1
11	6664	753.69245924009	2
11	6698	758.415796846782	1
11	6701	758.818848983016	2
11	6711	760.43567937566	1
11	6730	762.54445643808	0
11	6741	763.945238725942	1
11	6766	768.044103278382	0
11	6772	769.071628468868	1
11	6787	770.451179886282	0
11	6806	774.198018211794	1
11	6841	779.32440795472	2
11	6847	780.079486317882	1
11	6882	784.450797697646	2
11	6886	784.858424387104	1
11	6904	788.015158625684	0
11	6921	789.577187440572	1
11	6949	794.703577183498	2
11	6969	796.929022573182	1
11	6991	799.829966926424	2
11	7024	804.95635666935	3
11	7036	806.829468013024	2
11	7061	810.082746412276	3
11	7065	811.223676738208	2
11	7087	815.209136155202	3
11	7102	815.928683471024	2
11	7115	818.335760078924	1
11	7126	820.335525898128	2
11	7132	820.742836686824	1
11	7150	823.62860669625	0
11	7161	825.461915641054	1
11	7165	826.03568330415	0
11	7195	830.58830538398	1
11	7236	835.714695126906	2
11	7249	837.588929089312	1
11	7262	840.841084869832	2
11	7284	843.072693002112	1
11	7295	843.528476208574	0
11	7303	845.967474612758	1
11	7307	846.37734653968	0
11	7347	851.093864355684	1
11	7351	852.02027484256	0
11	7381	856.22025409861	1
11	7387	858.002857652258	0
11	7411	861.346643841536	1
11	7445	866.473033584462	2
11	7484	871.599423327388	3
11	7487	871.776963955487	2
11	7498	874.184040563387	1
11	7515	876.725813070314	2
11	7532	878.863020363904	1
11	7548	881.85220281324	2
11	7568	884.543336000768	1
11	7583	886.978592556166	2
11	7619	891.670002781733	1
11	7622	892.104982299092	2
11	7658	896.7581840448	1
11	7659	897.231372042018	2
11	7674	898.891232605433	1
11	7695	902.357761784944	2
11	7706	903.705385821233	1
11	7733	907.48415152787	2
11	7769	912.610541270796	3
11	7777	913.333692252833	2
11	7782	914.653347725696	1
11	7801	917.736931013722	2
11	7830	921.078894867808	1
11	7837	922.863320756648	2
11	7840	922.961998684433	1
11	7856	925.473103592992	0
11	7873	927.989710499574	1
11	7903	932.590305116033	0
11	7914	933.1161002425	1
11	7923	934.997381723933	0
11	7943	938.242489985426	1
11	7983	943.368879728352	2
11	8004	947.032764763433	1
11	8019	948.495269471278	2
11	8052	953.621659214204	3
11	8058	954.253994587133	2
11	8078	956.661071195033	1
11	8084	958.74804895713	2
11	8103	960.626773394464	1
11	8124	963.874438700056	2
11	8140	966.289377626633	1
11	8164	969.000828442982	2
11	8168	969.415190844832	1
11	8177	971.103530842433	0
11	8192	974.127218185908	1
11	8230	978.324760666133	0
11	8234	979.253607928834	1
11	8266	984.37999767176	2
11	8304	989.506387414686	3
11	8334	994.632777157612	4
11	8362	997.581373529333	3
11	8377	999.759166900538	4
11	8383	999.988450137233	3
11	8416	1004.568860646304	2
11	8420	1004.885556643464	3
11	8450	1010.01194638639	4
11	8473	1013.076747970624	3
11	8486	1015.138336129316	4
11	8505	1017.751486821856	3
11	8521	1020.264725872242	4
11	8538	1022.024329811072	3
11	8554	1024.059216216233	2
11	8555	1025.391115615168	3
11	8582	1028.873369432033	2
11	8595	1030.517505358094	3
11	8620	1033.687522647833	2
11	8628	1035.64389510102	3
11	8649	1038.501675863633	2
11	8664	1040.770284843946	3
11	8693	1044.11673917296	2
11	8703	1045.896674586872	3
11	8714	1048.510947898144	2
11	8721	1048.867075332416	1
11	8742	1051.023064329798	2
11	8750	1052.905156623328	1
11	8770	1056.149454072724	2
11	8788	1057.758288726833	1
11	8809	1061.27584381565	2
11	8843	1066.08778279888	1
11	8844	1066.402233558576	2
11	8877	1070.481991524064	1
11	8885	1071.528623301502	2
11	8891	1072.200748374233	1
11	8914	1075.70982085376	0
11	8921	1076.655013044428	1
11	8928	1077.014901590033	0
11	8949	1081.781402787354	1
11	8991	1086.90779253028	2
11	9000	1088.0588264248	1
11	9028	1092.034182273206	2
11	9042	1093.864437845333	1
11	9068	1097.160572016132	2
11	9087	1101.085667669033	1
11	9099	1102.286961759058	2
11	9110	1103.492744276933	1
11	9121	1105.17917000096	0
11	9133	1107.413351501984	1
11	9139	1108.306897492733	0
11	9172	1112.53974124491	1
11	9175	1113.121050708533	0
11	9200	1117.666130987836	1
11	9207	1117.935203924333	0
11	9243	1122.792520730762	1
11	9256	1125.156433748033	0
11	9281	1127.918910473688	1
11	9315	1133.045300216614	2
11	9339	1137.191816787533	1
11	9346	1138.17168995954	2
11	9362	1139.65351906349	1
11	9385	1143.298079702466	2
11	9397	1145.183539852192	1
11	9409	1146.548388875996	0
11	9419	1148.424469445392	1
11	9451	1153.550859188318	2
11	9490	1158.677248931244	3
11	9519	1162.847878202874	2
11	9525	1163.80363867417	3
11	9549	1167.232998313514	2
11	9558	1168.930028417096	3
11	9562	1169.355972593857	2
11	9576	1171.548792203296	1
11	9589	1174.056418160022	2
11	9597	1174.133221098688	1
11	9623	1179.182807902948	2
11	9657	1184.309197645874	3
11	9661	1184.731418378848	2
11	9695	1189.4355873888	3
11	9701	1189.983668189513	2
11	9727	1194.561977131726	3
11	9748	1197.9140445544	2
11	9758	1199.688366874652	3
11	9766	1200.918228232414	2
11	9786	1203.325304840314	1
11	9796	1204.814756617578	2
11	9834	1209.941146360504	3
11	9841	1210.546534664014	2
11	9859	1215.06753610343	3
11	9902	1220.174841095614	2
11	9903	1220.193925846356	3
11	9919	1222.581917703514	2
11	9935	1224.279296905504	1
11	9938	1225.320315589282	2
11	9949	1227.396070919314	1
11	9972	1230.446705332208	2
11	10005	1235.573095075134	3
11	10020	1237.461923081056	2
11	10041	1240.69948481806	3
11	10083	1245.825874560986	4
11	10087	1246.250340531424	3
11	10109	1250.61742361282	2
11	10115	1250.952264303912	3
11	10129	1253.02450022072	2
11	10138	1254.66145766272	1
11	10145	1255.038757981792	0
11	10153	1256.078654046838	1
11	10190	1261.205043789764	2
11	10201	1263.609039503168	1
11	10204	1263.761175688598	0
11	10222	1266.33143353269	1
11	10231	1267.46695986812	0
11	10258	1271.457823275616	1
11	10269	1272.615592882528	0
11	10291	1276.584213018542	1
11	10322	1281.404010332896	0
11	10326	1281.710602761468	1
11	10347	1284.31649612342	0
11	10363	1286.836992504394	1
11	10400	1291.53772594712	0
11	10402	1291.96338224732	1
11	10414	1293.94480255502	0
11	10431	1297.089771990246	1
11	10447	1298.75895577082	0
11	10471	1302.216161733172	1
11	10480	1303.57310898662	0
11	10501	1307.342551476098	1
11	10511	1308.38726220242	0
11	10544	1312.468941219024	1
11	10582	1317.59533096195	2
11	10587	1318.01556863402	1
11	10613	1322.721720704876	2
11	10632	1325.23679845772	1
11	10638	1325.815004001152	0
11	10655	1327.848110447802	1
11	10667	1329.74030630992	0
11	10691	1332.974500190728	1
11	10695	1334.134515035104	0
11	10721	1338.100889933654	1
11	10733	1339.604743626164	0
11	10758	1343.22727967658	1
11	10792	1348.353669419506	2
11	10802	1349.30756453672	1
11	10814	1351.71464114462	0
11	10831	1353.480059162432	1
11	10835	1354.12171775252	0
11	10861	1358.606448905358	1
11	10896	1363.732838648284	2
11	10918	1367.184222876188	1
11	10932	1368.85922839121	2
11	10966	1373.985618134136	3
11	10996	1379.112007877062	4
11	11007	1379.927603428992	3
11	11034	1383.613924565736	2
11	11035	1384.238397619988	3
11	11072	1389.364787362914	4
11	11076	1389.49571406733	3
11	11101	1394.49117710584	4
11	11111	1394.763702126212	3
11	11138	1399.617566848766	4
11	11156	1401.658571938718	3
11	11176	1404.743956591692	4
11	11184	1406.315336941364	3
11	11189	1406.770348950336	2
11	11215	1409.870346334618	3
11	11244	1414.996736077544	4
11	11252	1415.44831156373	3
11	11260	1415.943643372964	2
11	11279	1420.12312582047	3
11	11298	1422.018689538784	2
11	11321	1425.249515563396	3
11	11350	1429.238051188742	2
11	11358	1430.375905306322	3
11	11366	1431.508053071014	2
11	11393	1435.502295049248	3
11	11425	1440.628684792174	4
11	11428	1441.136359502614	3
11	11436	1442.560676312128	2
11	11441	1443.027790813754	1
11	11443	1443.543436110514	0
11	11460	1445.7550745351	1
11	11492	1450.881464278026	2
11	11525	1456.007854020952	3
11	11532	1456.866710450309	2
11	11562	1461.134243763878	3
11	11597	1466.260633506804	4
11	11622	1469.403421833472	3
11	11633	1471.38702324973	4
11	11653	1474.749194240992	3
11	11670	1476.513412992656	4
11	11702	1481.639802735582	5
11	11714	1483.53761169136	4
11	11722	1484.151579968941	3
11	11728	1484.39700968879	2
11	11740	1486.766192478508	3
11	11774	1491.372809792641	2
11	11775	1491.892582221434	3
11	11804	1496.186963008441	2
11	11814	1497.01897196436	3
11	11823	1498.594039616341	2
11	11844	1501.114446592096	1
11	11848	1502.145361707286	2
11	11883	1507.271751450212	3
11	11891	1508.222346047941	2
11	11902	1510.629422655841	1
11	11919	1512.398141193138	2
11	11933	1514.297072767648	1
11	11952	1517.524530936064	2
11	11958	1518.47832785034	1
11	11973	1521.079881087104	0
11	11988	1522.65092067899	1
11	11997	1523.08891287616	0
11	12021	1527.777310421916	1
11	12035	1529.399834536771	0
11	12060	1532.903700164842	1
11	12083	1536.268116393568	0
11	12092	1538.030089907768	1
11	12108	1540.662325118752	0
11	12124	1543.156479650694	1
11	12147	1546.249370792071	0
11	12159	1548.28286939362	1
11	12198	1553.409259136546	2
11	12202	1553.470600615771	1
11	12241	1558.535648879472	2
11	12265	1562.633368744672	1
11	12270	1563.662038622398	2
11	12280	1565.505983655271	1
11	12291	1567.027577469856	0
11	12306	1568.788428365324	1
11	12334	1572.727213478971	0
11	12342	1573.91481810825	1
11	12379	1579.041207851176	2
11	12393	1580.925187063874	1
11	12412	1584.167597594102	2
11	12427	1585.721985759296	1
11	12432	1587.169673126371	0
11	12454	1589.293987337028	1
11	12458	1589.576749734271	0
11	12482	1594.420377079954	1
11	12492	1594.714926688886	0
11	12518	1599.54676682288	1
11	12536	1601.612132773771	0
11	12560	1604.673156565806	1
11	12567	1606.426285989571	0
11	12594	1609.799546308732	1
11	12606	1611.240439205371	0
11	12625	1614.925936051658	1
11	12631	1615.36387344688	0
11	12661	1620.052325794584	1
11	12697	1625.17871553751	2
11	12703	1627.501245358494	1
11	12731	1630.305105280436	2
11	12741	1632.315398574294	1
11	12748	1632.940708347616	0
11	12759	1635.431495023362	1
11	12775	1636.499527356614	0
11	12799	1640.557884766288	1
11	12831	1645.684274509214	2
11	12834	1646.122675270151	1
11	12836	1646.123334523168	0
11	12868	1650.81066425214	1
11	12905	1655.937053995066	2
11	12924	1659.30596069872	1
11	12931	1660.583263958199	0
11	12932	1661.063443737992	1
11	12968	1666.189833480918	2
11	12989	1668.094378149088	1
11	13002	1670.211570389799	0
11	13011	1671.316223223844	1
11	13021	1672.618646997699	0
11	13046	1676.44261296677	1
11	13049	1676.882795599456	0
11	13079	1681.569002709696	1
11	13118	1686.695392452622	2
11	13122	1687.061106645099	1
11	13150	1691.821782195548	2
11	13173	1694.459630500192	1
11	13186	1696.689413076699	0
11	13188	1696.948171938474	1
11	13201	1699.096489684599	0
11	13229	1702.0745616814	1
11	13251	1706.317719508299	0
11	13261	1707.200951424326	1
11	13294	1712.036465400928	0
11	13297	1712.327341167252	1
11	13329	1717.453730910178	2
11	13340	1718.822583313994	1
11	13345	1719.935713366016	0
11	13366	1722.580120653104	1
11	13372	1723.167255763599	0
11	13397	1727.70651039603	1
11	13411	1728.883295206464	0
11	13431	1732.832900138956	1
11	13472	1737.830877046912	0
11	13473	1737.959289881882	1
11	13476	1738.401717752032	0
11	13513	1743.085679624808	1
11	13536	1746.77845888736	0
11	13542	1748.212069367734	1
11	13555	1749.41158369772	0
11	13579	1753.33845911066	1
11	13586	1754.22573691352	0
11	13613	1758.464848853586	1
11	13628	1760.19180218903	0
11	13649	1763.591238596512	1
11	13689	1768.717628339438	2
11	13719	1773.555387553504	1
11	13723	1773.844018082364	2
11	13739	1775.88942638462	1
11	13759	1778.97040782529	2
11	13770	1780.876411626548	1
11	13777	1782.343805003872	0
11	13794	1784.096797568216	1
11	13805	1785.51773281622	0
11	13824	1789.223187311142	1
11	13839	1791.13222245424	0
11	13859	1794.349577054068	1
11	13877	1795.526431179424	0
11	13896	1799.475966796994	1
