version 2
run conf3-6-20161125-01:35:33-912
attr configname conf3
attr datetime 20161125-01:35:33
attr experiment conf3
attr i 5
attr inifile omnetpp.ini
attr iterationvars "$i=5, $p=7, $q=1"
attr iterationvars2 "$i=5, $p=7, $q=1, $repetition=0"
attr measurement "$i=5, $p=7, $q=1"
attr network Omrezje
attr p 7
attr processid 912
attr q 1
attr repetition 0
attr replication #0
attr resultdir results
attr runnumber 6
attr seedset 6
param Omrezje.router*.processingTime "truncnormal(${p = 5..7 step 2}, ${p} * 0.5)"
param Omrezje.router*.queueCapacity "truncnormal(${q = 1..6 step 5}, 0)"
param Omrezje.source*.interArrivalTime "truncnormal(${i = 3..5 step 2}, ${i} * 0.5)"

vector 0  Omrezje.router  droppedPackage:vector  ETV
attr interpolationmode  none
attr title  "drop package, vector"
vector 1  Omrezje.router  queueLength:vector  ETV
attr interpolationmode  none
attr title  "queue length, vector"
vector 2  Omrezje.router1  droppedPackage:vector  ETV
attr interpolationmode  none
attr title  "drop package, vector"
vector 3  Omrezje.router1  queueLength:vector  ETV
attr interpolationmode  none
attr title  "queue length, vector"
vector 4  Omrezje.router2  droppedPackage:vector  ETV
attr interpolationmode  none
attr title  "drop package, vector"
vector 5  Omrezje.router2  queueLength:vector  ETV
attr interpolationmode  none
attr title  "queue length, vector"
vector 6  Omrezje.router3  droppedPackage:vector  ETV
attr interpolationmode  none
attr title  "drop package, vector"
vector 7  Omrezje.router3  queueLength:vector  ETV
attr interpolationmode  none
attr title  "queue length, vector"
vector 8  Omrezje.router4  droppedPackage:vector  ETV
attr interpolationmode  none
attr title  "drop package, vector"
vector 9  Omrezje.router4  queueLength:vector  ETV
attr interpolationmode  none
attr title  "queue length, vector"
vector 10  Omrezje.router5  droppedPackage:vector  ETV
attr interpolationmode  none
attr title  "drop package, vector"
vector 11  Omrezje.router5  queueLength:vector  ETV
attr interpolationmode  none
attr title  "queue length, vector"
0	0	0	0
0	298	12.851087555628	1
0	313	13.52697296116	2
0	362	15.914213760991	3
0	421	18.745820670124	4
0	430	19.326280532166	5
0	507	22.478055629626	6
0	548	24.338164102023	7
0	564	25.05394592232	8
0	962	43.02507150782	9
0	1218	55.73485443071	10
0	1253	57.396563370249	11
0	1324	60.985927925618	12
0	1378	63.53760726173	13
0	1411	65.799411962617	14
0	1423	66.604618380997	15
0	1497	70.3751191797	16
0	1514	71.16183776696	17
0	1526	71.925664373343	18
0	1593	75.863969494524	19
0	1714	82.68881072812	20
0	1716	82.776751928971	21
0	1730	83.651930844789	22
0	2091	104.56267876955	23
0	2147	107.944702603383	24
0	2219	112.183894500971	25
0	2262	115.247020706334	26
0	2296	117.434967995879	27
0	2402	123.998809864514	28
0	2423	125.07521452346	29
0	2682	141.502388180874	30
0	3010	163.37762145624	31
0	3026	164.605980557954	32
0	3185	176.071955355685	33
0	3420	192.267598776673	34
0	3440	194.013123129954	35
0	3616	207.1253575391	36
0	3980	236.021711089218	37
0	4050	242.147963499944	38
0	4136	249.36645552434	39
0	4182	253.525289405578	40
0	4220	255.713236695123	41
0	4523	280.631324613691	42
0	4712	296.01301247271	43
0	4884	309.68803630865	44
0	4991	318.726118634019	45
0	5105	328.790676165926	46
0	5126	330.20057206256	47
0	5216	337.542465324106	48
0	5295	343.8755958985	49
0	5312	346.294254482286	50
0	5368	350.71310781647	51
0	5445	357.55061973444	52
0	5468	359.33616179596	53
0	5690	378.06315548835	54
0	5875	393.91708067944	55
0	5877	393.991505394367	56
0	5900	396.179452683912	57
0	5930	398.57569124226	58
0	5941	399.789389615283	59
0	6047	408.633168009583	60
0	6076	411.495083710727	61
0	6151	417.476946403883	62
0	6244	425.92573891414	63
0	6281	428.49799956292	64
0	6292	429.464526512969	65
0	6354	435.124914437813	66
0	6417	440.02497252408	67
0	6436	441.688756306448	68
0	6495	446.43827466805	69
0	6553	451.55194548524	70
0	6610	456.129208417445	71
0	6654	460.11329850399	72
0	6680	462.255460828171	73
0	6691	463.0789184464	74
0	6816	473.632786733805	75
0	7058	494.30085809384	76
0	7098	497.65983732988	77
0	7103	498.137796376709	78
0	7222	507.97588192978	79
0	7237	509.18681029104	80
0	7239	509.515122282343	81
0	7317	516.078964150978	82
0	7384	521.65090576572	83
0	7510	532.269774093611	84
0	7545	535.32592960166	85
0	7553	536.208079214792	86
0	7606	541.289843924083	87
0	7621	542.16344151963	88
0	7629	543.209510541336	89
0	7639	543.76772917452	90
0	7754	553.711657531152	91
0	7778	555.29470213568	92
0	7784	555.83846535557	93
0	7855	562.463446689332	94
0	8049	578.348648058	95
0	8147	586.530866874327	96
0	8184	589.87562101916	97
0	8187	590.02602494542	98
0	8277	597.819543887864	99
0	8348	603.70104878136	100
0	8455	612.92956694148	101
0	8503	617.3760726173	102
0	8584	624.45653990264	103
0	8854	647.793390981587	104
0	8894	651.56363220715	105
0	8940	655.777896470199	106
0	8952	656.982769597676	107
0	9135	672.07616796106	108
0	9164	674.923937371945	109
0	9192	677.549474119399	110
0	9245	682.09140470844	111
0	9370	692.58870371497	112
0	9379	693.6183776696	113
0	9525	706.26372755091	114
0	9589	712.11904129421	115
0	9638	716.057346415391	116
0	9781	728.19929655308	117
0	9795	729.62261961057	118
0	9840	733.61377522279	119
0	9898	739.249587684568	120
0	9904	739.72626951424	121
0	10042	751.2532424754	122
0	10056	752.377271421838	123
0	10112	757.628344916746	124
0	10373	779.945407270105	125
0	10394	781.47635864858	126
0	10420	784.321301849195	127
0	10579	797.36113432004	128
0	10711	808.82640632046	129
0	10717	808.8881072812	130
0	10734	810.576669323735	131
0	10791	815.66391823843	132
0	10998	833.134530935983	133
0	11187	849.85147782828	134
0	11375	866.522972087	135
0	11511	878.04994504816	136
0	11549	881.775312104633	137
0	11949	917.150425681833	138
0	12039	924.1578368928	139
0	12133	931.90162084392	140
0	12285	945.57664467986	141
0	12308	947.21178281512	142
0	12328	948.854938022979	143
0	12448	959.2516685158	144
0	12468	961.107442844431	145
0	12567	970.26572873744	146
0	12634	975.985484413337	147
0	12679	979.76420426971	148
0	12968	1004.84664762092	149
0	12973	1005.30397809324	150
0	12998	1007.11425194159	151
0	13179	1023.245145867509	152
0	13381	1040.963323202033	153
0	13465	1048.13932344941	154
0	13484	1049.807101596333	155
0	13625	1061.81434728535	156
0	13674	1066.128912742591	157
0	13701	1068.65185920332	158
0	13892	1085.382848890587	159
0	13936	1089.16439495723	160
0	13986	1094.134638048767	161
0	14015	1096.0019068752	162
0	14087	1102.869771962133	163
0	14150	1108.58940427136	164
0	14186	1111.638216365127	165
0	14287	1120.11637723252	166
0	14326	1123.35195454708	167
0	14375	1127.598053885489	168
0	14496	1138.150089488894	169
0	14556	1143.17032315484	170
0	14648	1150.70200221896	171
0	14689	1154.697296116	172
0	14720	1157.53951413693	173
0	14872	1171.21453797287	174
0	14914	1174.213508846114	175
0	15035	1184.88956180881	176
0	15084	1189.27821499948	177
0	15111	1191.72707372678	178
0	15119	1192.154676620383	179
0	15217	1200.80518796064	180
0	15222	1201.299128191544	181
0	15316	1210.095844394652	182
0	15349	1212.3321609218	183
0	15425	1219.285223010741	184
0	15505	1225.91463331663	185
0	15535	1228.47460162683	186
0	15616	1235.526447876633	187
0	15641	1237.22639078501	188
0	15668	1239.58965715257	189
0	15734	1245.97817994319	190
0	15749	1246.91307980528	191
0	16057	1273.77721674242	192
0	16127	1280.61472866039	193
0	16270	1293.02097164992	194
0	16445	1307.96477633227	195
0	16447	1308.115882966268	196
0	16538	1316.07491757224	197
0	16937	1350.65583645572	198
0	16992	1355.695411445479	199
0	17109	1365.694233087983	200
0	17151	1369.502383594	201
0	17176	1371.566354363073	202
0	17200	1373.70978237804	203
0	17460	1396.76372830036	204
0	17594	1408.29070126152	205
0	17596	1408.323868827429	206
0	17617	1410.52745510182	207
0	17930	1437.8775027737	208
0	18468	1485.680092798031	209
0	18472	1485.74008619949	210
0	18508	1488.97951198964	211
0	18645	1500.5064849508	212
0	18702	1506.2526219534	213
0	18769	1512.03345791196	214
0	18827	1517.721233304679	215
0	18899	1523.56043087312	216
0	19033	1535.08740383428	217
0	19157	1546.61437679544	218
0	19228	1553.165979395308	219
0	19289	1558.1413497566	220
0	19470	1574.6277411331	221
0	19481	1575.669487580567	222
0	19552	1581.46525305107	223
0	19736	1598.237693559935	224
0	19815	1604.24924160124	225
0	19835	1606.989482718115	226
0	20013	1622.49032455889	227
0	20050	1625.805829408202	228
0	20072	1627.30318752356	229
0	20248	1643.0028603128	230
0	20267	1645.059765556198	231
0	20315	1649.84037223077	232
0	20581	1673.293478394483	233
0	20681	1682.137256788783	234
0	20844	1696.46502529052	235
0	20935	1704.54046757453	236
0	21090	1718.21549141047	237
0	21167	1725.05300332844	238
0	21184	1726.888994185181	239
0	21286	1735.640783343361	240
0	21315	1738.72802716438	241
0	21362	1742.57291713516	242
0	21496	1754.09989009632	243
0	21679	1770.575040731783	244
0	21706	1772.91558675423	245
0	21752	1777.15383601864	246
0	21791	1779.7530986722	247
0	21854	1785.644742073151	248
0	21867	1786.59061059017	249
0	21890	1788.6808089798	250
0	21981	1797.34089690853	251
1	0	0	0
1	288	12.418331576074	0
1	574	25.390838169775	1
1	584	25.823594149329	0
1	596	26.499479554861	1
1	603	26.765301316619	0
1	653	28.886720354692	1
1	721	31.718327263825	0
1	739	32.298787125867	1
1	792	34.970149878709	0
1	800	35.450562223327	1
1	852	37.310670695724	0
1	868	38.026452516021	1
1	883	38.79610074303	0
1	896	39.73780791032	1
1	931	41.643342885525	0
1	993	44.690833857526	1
1	1004	44.968971521213	0
1	1047	47.94265647241	1
1	1057	48.10789184464	0
1	1105	50.283177289425	1
1	1109	50.395132043705	0
1	1130	51.768607336731	1
1	1180	53.895847706977	0
1	1193	54.615849479226	1
1	1202	54.967793163717	0
1	1224	55.997578101521	1
1	1232	56.432735562334	0
1	1261	57.941478114914	1
1	1298	59.6348648058	0
1	1328	61.080398438341	1
1	1370	63.367638637406	0
1	1428	66.868354300678	1
1	1431	67.188863957956	0
1	1448	67.940299757418	1
1	1462	68.424948710071	0
1	1466	68.707361024411	1
1	1475	69.094887868897	0
1	1480	69.405242156035	1
1	1494	70.36906996395	0
1	1543	72.607371399501	1
1	1561	73.958434519319	0
1	1598	76.340145231107	1
1	1602	76.510113855431	0
1	1643	78.771918556318	1
1	1648	79.276036265699	0
1	1652	79.577124974698	1
1	1664	80.161370551657	0
1	1688	81.397455303772	1
1	1703	82.067394462598	0
1	1721	83.341576557651	1
1	1722	83.347625773401	0
1	1738	84.134344360661	1
1	1740	84.178169194795	0
1	1754	84.898170967044	1
1	1757	84.964258091229	0
1	1795	86.93094111302	1
1	1825	88.836476088225	0
1	1835	89.482620449132	1
1	1862	90.88765493361	0
1	1884	92.2485428594	1
1	1901	93.133877145358	0
1	1931	95.039901056299	1
1	1945	95.661317321821	0
1	1946	95.749258522672	1
1	1953	96.320132367102	0
1	1961	96.62443743849	1
1	1965	97.150675788496	0
1	1978	97.93676468493	1
1	1994	98.920286080866	0
1	2045	101.808982681926	1
1	2079	103.860161527311	0
1	2098	104.961901376237	1
1	2116	106.106383739059	0
1	2154	108.633823915522	1
1	2169	109.292638960803	0
1	2181	110.123182382197	1
1	2213	111.892792674567	0
1	2281	116.832668121012	1
1	2291	117.2697296116	0
1	2302	117.535185363251	1
1	2330	119.07889033276	0
1	2350	120.917209197084	1
1	2380	122.265145554504	0
1	2414	124.865299268268	1
1	2415	124.959544661245	0
1	2424	125.156401094672	1
1	2467	128.219527300035	0
1	2507	130.242236205301	1
1	2508	130.40747458958	0
1	2537	132.051396926461	1
1	2585	135.237652148205	0
1	2612	136.971316458215	1
1	2625	137.932051254946	0
1	2626	138.047721117161	1
1	2677	141.192033893736	0
1	2711	143.379981183281	1
1	2720	144.127924928328	0
1	2732	144.957187946253	1
1	2749	145.58775027737	0
1	2784	148.210158741906	1
1	2806	149.816587881145	0
1	2823	150.904557848647	1
1	2850	152.42526219534	0
1	2874	154.164540487437	1
1	2882	154.474894774575	0
1	2888	154.956009588757	1
1	2918	157.100431522029	0
1	2934	158.560256871071	1
1	2947	159.26277411331	0
1	2993	162.789094474846	1
1	3004	163.302879140937	0
1	3036	165.397768789041	1
1	3067	167.447401368276	0
1	3100	170.07293811573	1
1	3106	170.820881860777	0
1	3130	172.235280707011	1
1	3174	174.953652873765	0
1	3190	176.275385734638	1
1	3191	176.350128049941	0
1	3207	177.578487151655	1
1	3248	180.419907961977	0
1	3299	183.793388454478	1
1	3313	184.952474516269	0
1	3353	187.926159467466	1
1	3365	188.762049635046	0
1	3369	189.044461949386	1
1	3376	189.322634643642	0
1	3432	193.392414555678	1
1	3435	193.45033370316	0
1	3450	194.951296158773	1
1	3462	195.832100915015	0
1	3492	197.92498110997	1
1	3527	200.28784562113	0
1	3542	201.734556228747	1
1	3551	202.295141237343	0
1	3585	204.950117801277	1
1	3589	205.240105370374	0
1	3602	206.422840296861	1
1	3613	206.985629723655	0
1	3635	208.804607508716	1
1	3644	209.48551330088	0
1	3688	213.260352214831	1
1	3717	215.267647831044	0
1	3748	218.212611964075	1
1	3775	219.958136317356	0
1	3776	220.097864132801	1
1	3781	220.638394758667	0
1	3806	222.458019894581	1
1	3842	224.947761086285	0
1	3886	228.240154424745	1
1	3933	232.5394592232	0
1	3937	232.930642911057	1
1	3944	233.396174341764	0
1	3948	233.610901352368	1
1	3966	234.946582728789	0
1	4002	237.920267679986	1
1	4039	241.31291712895	0
1	4092	245.511965816901	1
1	4103	246.368680935465	0
1	4118	247.91908932249	1
1	4131	248.994217682919	0
1	4198	254.285423722651	1
1	4205	254.944226013797	0
1	4209	255.120470093645	1
1	4218	255.59340514552	0
1	4259	259.341187529166	1
1	4290	261.96672427662	0
1	4297	262.338962118041	1
1	4317	264.465025853303	0
1	4321	264.943047656301	1
1	4337	265.823852412543	0
1	4347	266.497795999279	1
1	4354	267.12037810668	0
1	4364	267.916732607498	1
1	4372	268.565911739221	0
1	4376	268.685743288824	1
1	4437	273.606187922384	0
1	4451	274.939230870321	1
1	4453	274.941869298805	0
1	4486	277.437532447004	1
1	4491	278.030299048482	0
1	4501	278.796359006244	1
1	4515	280.092884700381	0
1	4536	281.538418332922	1
1	4598	286.578694516085	0
1	4610	287.914375892506	1
1	4629	289.407624954116	0
1	4651	291.002805642183	1
1	4664	292.03316170157	0
1	4683	293.065391294082	1
1	4688	293.603831207392	0
1	4752	299.551201109786	1
1	4781	301.70129699016	0
1	4791	302.380131547817	1
1	4831	305.005668295271	0
1	4847	306.576337801093	1
1	4849	306.911203270476	0
1	4941	314.673803583861	1
1	4983	317.978174888972	0
1	5004	319.883709864177	1
1	5045	323.36306014459	0
1	5132	330.950681482673	1
1	5200	336.28221587364	0
1	5204	336.335566738291	1
1	5211	337.03808398053	0
1	5345	349.254722467341	1
1	5356	350.010590574231	0
1	5516	362.983097167932	1
1	5670	376.487927078007	0
1	5818	389.460433671708	1
1	5848	391.73817932429	0
1	5997	404.710685917991	1
1	6001	404.931241842092	0
1	6158	417.903748435793	1
1	6217	422.872409616361	0
1	6366	435.844916210062	1
1	6408	439.60076275008	0
1	6566	452.573269343781	1
1	6575	453.066082212082	0
1	6723	466.038588805783	1
1	6779	471.007249986351	0
1	6935	483.979756580052	1
1	6982	487.46334617587	0
1	7133	500.435852769571	1
1	7172	503.826459329526	0
1	7327	516.798965923227	1
1	7348	518.266911440523	0
1	7492	531.239418034224	1
1	7508	532.24075621336	0
1	7660	545.213262807061	1
1	7720	550.599508961299	0
1	7871	563.572015555	1
1	7911	566.82167509684	0
1	8064	579.794181690541	1
1	8110	583.18851302745	0
1	8258	596.161019621151	1
1	8269	596.86353686339	0
1	8412	609.836043457091	1
1	8449	612.786234348867	0
1	8600	625.758740942568	1
1	8816	644.72612028918	0
1	8964	657.698626882881	1
1	9117	670.56443174728	0
1	9261	683.536938340981	1
1	9291	685.751191797	0
1	9433	698.723698390701	1
1	9486	703.36725213603	0
1	9642	716.339758729731	1
1	9758	726.77626330482	0
1	9905	739.748769898521	1
1	9998	747.28879905873	0
1	10143	760.261305652431	1
1	10317	774.63884673061	0
1	10464	787.611353324311	1
1	10505	791.46584303175	0
1	10655	804.438349625451	1
1	10676	805.760221107759	0
1	10824	818.73272770146	1
1	10848	820.41508024236	0
1	11002	833.387586836061	1
1	11117	843.46902616468	0
1	11262	856.441532758381	1
1	11269	856.68898974625	0
1	11410	869.661496339951	1
1	11420	870.36401358219	0
1	11573	883.336520175891	1
1	11854	908.306647287533	0
1	11996	921.279153881234	1
1	12000	921.286802174712	0
1	12152	934.259308768413	1
1	12209	938.73913276189	0
1	12353	951.711639355591	1
1	12372	952.41415659783	0
1	12510	965.386663191531	1
1	12534	967.233695255157	0
1	12686	980.206201848858	1
1	12915	1000.27674002362	0
1	13063	1013.249246617321	1
1	13112	1017.10373632476	0
1	13256	1030.076242918461	1
1	13350	1038.123187436415	0
1	13500	1051.095694030116	1
1	13566	1056.939534126502	0
1	13716	1069.912040720203	1
1	13870	1083.632491058951	0
1	14019	1096.604997652652	1
1	14065	1101.136069375311	0
1	14217	1114.108575969012	1
1	14245	1116.51444262911	0
1	14390	1129.486949222811	1
1	14424	1131.64335019368	0
1	14572	1144.615856787381	1
1	14588	1146.207783539938	0
1	14736	1159.180290133639	1
1	14822	1166.22426907716	0
1	14966	1179.196775670861	1
1	15012	1182.965298004294	0
1	15158	1195.937804597995	1
1	15205	1200.151334299433	0
1	15359	1213.123840893134	1
1	15423	1219.07712139866	0
1	15579	1232.049627992361	1
1	15611	1235.38610684412	0
1	15768	1248.358613437821	1
1	15818	1253.214004665233	0
1	15965	1266.186511258934	1
1	16009	1269.9670257276	0
1	16167	1282.939532321301	1
1	16212	1287.45224057836	0
1	16354	1300.424747172061	1
1	16404	1304.54794461108	0
1	16556	1317.520451204781	1
1	16559	1317.669245516894	0
1	16705	1330.641752110595	1
1	16756	1335.246429356626	0
1	16905	1348.218935950327	1
1	16916	1348.98984784009	0
1	17062	1361.962354433791	1
1	17069	1362.18280941688	0
1	17213	1375.155316010581	1
1	17229	1376.33989551197	0
1	17371	1389.312402105671	1
1	17395	1390.500526931635	0
1	17537	1403.473033525336	1
1	17544	1403.68994318385	0
1	17679	1416.662449777551	1
1	17695	1417.36496701979	0
1	17840	1430.337473613491	1
1	17857	1431.34464718384	0
1	17997	1444.317153777541	1
1	18211	1463.022551066054	0
1	18352	1475.995057659755	1
1	18377	1477.45253902848	0
1	18523	1490.425045622181	1
1	18617	1499.088185888264	0
1	18770	1512.060692481965	1
1	18783	1513.09013387137	0
1	18922	1526.062640465071	1
1	18939	1526.76515770731	0
1	19079	1539.737664301011	1
1	19087	1540.44018154325	0
1	19232	1553.412688136951	1
1	19245	1554.11520537919	0
1	19381	1567.087711972891	1
1	19428	1570.94220168033	0
1	19574	1583.914708274031	1
1	19600	1585.668309223071	0
1	19743	1598.640815816772	1
1	19783	1601.97778880498	0
1	19921	1614.950295398681	1
1	19937	1615.741271876295	0
1	20082	1628.713778469996	1
1	20201	1638.83016048472	0
1	20344	1651.802667078421	1
1	20551	1670.35290798468	0
1	20694	1683.325414578381	1
1	20717	1684.93805232936	0
1	20860	1697.910558923061	1
1	20887	1700.196037252732	0
1	21033	1713.168543846433	1
1	21084	1717.699615569092	0
1	21222	1730.672122162793	1
1	21233	1731.045944174	0
1	21380	1744.018450767701	1
1	21475	1752.40305100032	0
1	21619	1765.375557594021	1
1	21626	1765.62686305748	0
1	21773	1778.599369651181	1
1	21782	1779.418819126083	0
1	21927	1792.391325719784	1
1	21946	1793.42812250814	0
2	0	0	0
2	161	2	1
2	174	3.750357831636	2
2	177	4.187947289545	3
2	186	5.500715663272	4
2	195	5.938305121181	5
2	198	6.37589457909	6
2	211	7.251073494908	7
2	214	7.688662952817	8
2	217	8.126252410726	9
2	226	9.001431326544	10
2	229	9.118355246614	11
2	236	9.439020784453	12
2	248	9.876610242362	13
2	251	10.082680404041	14
2	264	10.8437783943	15
2	269	11.189378616089	16
2	273	11.626968073998	17
2	283	12.064557531907	18
2	295	12.502146989816	19
2	320	13.814915363543	20
2	353	15.565273195179	21
2	389	17.315631026815	22
2	448	20.058091694339	23
2	529	23.441883437541	24
2	583	25.629830727086	25
2	650	28.726065438777	26
2	654	28.886720354692	27
2	697	30.443314764085	28
2	717	31.318493679903	29
2	729	31.996464927512	30
2	745	32.63126205363	31
2	761	33.068851511539	32
2	782	34.381619885266	33
2	823	36.474609789697	34
2	828	36.569567174811	35
2	891	39.195103922265	36
2	895	39.632693380174	37
2	904	40.070282838083	38
2	911	40.507872295992	39
2	922	40.945461753901	40
2	935	41.79700277435	41
2	966	43.133409043446	42
2	970	43.570998501355	43
2	994	44.690833857526	44
2	1003	44.883766875082	45
2	1011	45.321356332991	46
2	1017	45.7589457909	47
2	1029	46.2188919715	48
2	1032	46.634124706718	49
2	1036	47.071714164627	50
2	1072	48.822071996263	51
2	1113	50.572429827899	52
2	1116	50.64078116865	53
2	1120	51.010019285808	54
2	1131	51.768607336731	55
2	1134	51.772412729123	56
2	1143	51.99410821252	57
2	1159	52.760377117444	58
2	1172	53.523374632681	59
2	1201	54.948324406989	60
2	1205	55.0626703658	61
2	1258	57.573861154443	62
2	1267	58.011450612352	63
2	1311	60.199397901897	64
2	1329	61.080398438341	65
2	1333	61.512166275624	66
2	1343	61.992929855024	67
2	1351	62.384252779582	68
2	1355	62.387345191442	69
2	1383	63.700113565169	70
2	1386	63.9064487601	71
2	1399	64.575292480987	72
2	1404	65.012881938896	73
2	1449	67.940299757418	74
2	1470	68.951187060077	75
2	1481	69.405242156035	76
2	1521	71.576723807531	77
2	1546	72.7502271544	78
2	1565	74.202260554985	79
2	1579	75.077439470803	80
2	1610	76.827797302439	81
2	1693	81.624059098863	82
2	1696	81.641281339438	83
2	1701	81.990573140032	84
2	1711	82.516460255256	85
2	1725	83.391639171074	86
2	1745	84.315682970502	87
2	1752	84.704407544801	88
2	1755	84.898170967044	89
2	1764	85.14199700271	90
2	1778	86.01589474585	91
2	1794	86.892354834346	92
2	1830	89.080302123891	93
2	1838	89.5178915818	94
2	1849	90.393070497618	95
2	1859	90.830659955527	96
2	1870	91.268249413436	97
2	1877	91.901056447672	98
2	1880	91.989394782536	99
2	1883	92.143428329254	100
2	1907	93.456196702981	101
2	1911	93.89378616089	102
2	1919	94.331375618799	103
2	1927	94.85967314015	104
2	1982	98.26968073998	105
2	1985	98.538672363217	106
2	2007	99.582449113707	107
2	2031	100.895217487434	108
2	2036	101.332806945343	109
2	2069	103.083164776979	110
2	2078	103.70345153445	111
2	2083	103.958343692797	112
2	2105	105.271112066524	113
2	2109	105.708701524433	114
2	2145	107.896648813978	115
2	2180	110.084596103523	116
2	2196	110.959775019341	117
2	2198	111.025033948232	118
2	2203	111.39736447725	119
2	2212	111.834953935159	120
2	2216	111.987038067544	121
2	2226	112.54722992875	122
2	2229	112.710132850977	123
2	2234	113.147722308886	124
2	2239	113.585311766795	125
2	2273	115.77325905634	126
2	2280	116.648437972158	127
2	2285	116.9691191259	128
2	2303	117.535185363251	129
2	2326	118.836385261703	130
2	2342	120.14915363543	131
2	2348	120.586743093339	132
2	2360	121.39100832305	133
2	2369	121.899511467066	134
2	2372	121.985859710048	135
2	2385	122.337100924975	136
2	2388	122.774690382884	137
2	2418	124.962637672429	138
2	2435	125.8128975202	139
2	2438	125.837816588247	140
2	2451	126.712995504065	141
2	2461	127.588174419883	142
2	2481	128.90094279361	143
2	2501	130.213711167337	144
2	2536	131.984681352552	145
2	2553	132.880867433054	146
2	2557	133.2768373727	147
2	2563	133.714426830609	148
2	2570	134.152016288518	149
2	2575	134.589605746427	150
2	2578	134.6566759145	151
2	2621	137.65273195179	152
2	2629	138.090321409699	153
2	2646	138.965500325517	154
2	2652	139.403089783426	155
2	2659	139.840679241335	156
2	2679	141.207715382512	157
2	2691	141.983502995056	158
2	2694	142.02862653088	159
2	2701	142.466215988789	160
2	2707	142.903805446698	161
2	2714	143.5004543088	162
2	2733	144.957187946253	163
2	2737	145.091752736243	164
2	2765	146.842110567879	165
2	2777	147.717289483697	166
2	2780	147.92234350595	167
2	2785	148.210158741906	168
2	2796	149.030057857424	169
2	2822	150.851842340582	170
2	2824	150.904557848647	171
2	2831	151.218005146969	172
2	2834	151.655594604878	173
2	2840	151.98232463756	174
2	2846	152.3442327031	175
2	2873	153.843541894423	176
2	2885	154.718720810241	177
2	2903	156.031489183968	178
2	2927	157.781847015604	179
2	2933	158.219436473513	180
2	2954	159.53220484724	181
2	2957	159.969794305149	182
2	2972	161.1880110974	183
2	2975	161.282562678876	184
2	2978	161.720152136785	185
2	2981	161.981146280064	186
2	3016	163.90809942633	187
2	3024	164.345688884239	188
2	3035	165.220867800057	189
2	3037	165.397768789041	190
2	3040	165.60990029455	191
2	3043	165.658457257966	192
2	3046	166.096046715875	193
2	3060	166.971225631693	194
2	3078	168.28399400542	195
2	3080	168.578955462381	196
2	3083	168.721583463329	197
2	3089	169.159172921238	198
2	3096	170.0317894917	199
2	3099	170.034351837056	200
2	3117	171.784709668692	201
2	3123	171.979967922568	202
2	3203	177.0357831636	203
2	3210	177.910962079418	204
2	3220	178.348551537327	205
2	3225	178.786140995236	206
2	3228	178.875567886	207
2	3234	179.223730453145	208
2	3246	180.215967194916	209
2	3265	181.41167774269	210
2	3268	181.849267200599	211
2	3271	181.978789565072	212
2	3283	182.724446116417	213
2	3302	184.037214490144	214
2	3309	184.474803948053	215
2	3321	185.78757232178	216
2	3325	186.225161779689	217
2	3335	186.662751237598	218
2	3337	186.777610161824	219
2	3352	187.7193462803	220
2	3356	187.975519611325	221
2	3370	189.044461949386	222
2	3385	190.16346690087	223
2	3393	190.601056358779	224
2	3397	191.038645816688	225
2	3401	191.476235274597	226
2	3407	191.913824732506	227
2	3427	192.789003648324	228
2	3454	194.976950937869	229
2	3459	195.621388556124	230
2	3466	195.852129853687	231
2	3476	196.5631246746	232
2	3479	196.727308769505	233
2	3508	198.91525605905	234
2	3517	199.790434974868	235
2	3524	200.228024432777	236
2	3530	200.665613890686	237
2	3541	201.540792806504	238
2	3543	201.734556228747	239
2	3547	201.97643285008	240
2	3575	204.166329553958	241
2	3580	204.465166950424	242
2	3584	204.603919011867	243
2	3588	205.041508469776	244
2	3592	205.4069030689	245
2	3598	205.916687385594	246
2	3601	206.354276843503	247
2	3628	207.66704521723	248
2	3631	208.104634675139	249
2	3634	208.542224133048	250
2	3638	208.979813590957	251
2	3641	209.417403048866	252
2	3652	209.854992506775	253
2	3658	210.730171422593	254
2	3661	211.167760880502	255
2	3669	211.605350338411	256
2	3681	212.480529254229	257
2	3689	213.260352214831	258
2	3691	213.308945344724	259
2	3710	214.2506814632	260
2	3713	214.668476543774	261
2	3716	215.106066001683	262
2	3732	216.41883437541	263
2	3735	216.856423833319	264
2	3738	217.294013291228	265
2	3747	218.169192207046	266
2	3757	219.006006303366	267
2	3760	219.044371122864	268
2	3769	219.481960580773	269
2	3779	220.357139496591	270
2	3796	221.232318412409	271
2	3802	221.974076135088	272
2	3805	222.107497328227	273
2	3807	222.458019894581	274
2	3814	222.545086786136	275
2	3823	223.0944598575	276
2	3829	223.420265701954	277
2	3832	223.857855159863	278
2	3845	225.17062353359	279
2	3848	225.608212991499	280
2	3854	226.483391907317	281
2	3860	226.920981365226	282
2	3874	227.51634905465	283
2	3880	227.796160281044	284
2	3885	228.233749738953	285
2	3889	228.671339196862	286
2	3895	229.108928654771	287
2	3906	230.421697028498	288
2	3914	230.996502133324	289
2	3918	231.296875944316	290
2	3924	231.9382382518	291
2	3927	231.972897777592	292
2	3930	232.172054860134	293
2	3949	233.610901352368	294
2	3953	233.92241269177	295
2	3965	234.797591607588	296
2	3969	235.235181065497	297
2	3978	235.672770523406	298
2	3988	236.36012744895	299
2	3991	236.547949439224	300
2	3994	236.985538897133	301
2	3998	237.423128355042	302
2	4027	240.048665102496	303
2	4030	240.486254560405	304
2	4036	240.923844018314	305
2	4045	241.799022934132	306
2	4048	241.971719420096	307
2	4055	242.280029768436	308
2	4061	242.67420184995	309
2	4064	243.111791307859	310
2	4070	243.986970223677	311
2	4086	245.20390584325	312
2	4089	245.299738597404	313
2	4102	246.174917513222	314
2	4109	246.612506971131	315
2	4121	247.925275344858	316
2	4127	248.362864802767	317
2	4134	249.238043718585	318
2	4140	249.6257950404	319
2	4143	249.675633176494	320
2	4145	250.038037590126	321
2	4148	250.113222634403	322
2	4154	250.550812092312	323
2	4169	251.9705410626	324
2	4175	252.738759381857	325
2	4178	253.176348839766	326
2	4191	254.04768423755	327
2	4194	254.051527755584	328
2	4201	254.489117213493	329
2	4204	254.926706671402	330
2	4226	256.239475045129	331
2	4235	257.552243418856	332
2	4238	257.989832876765	333
2	4246	258.427422334674	334
2	4252	258.865011792583	335
2	4258	259.302601250492	336
2	4260	259.341187529166	337
2	4263	259.740190708401	338
2	4275	261.052959082128	339
2	4306	262.89146263185	340
2	4309	263.240906371673	341
2	4312	263.678495829582	342
2	4326	264.991264203309	343
2	4329	265.428853661218	344
2	4331	265.486244089751	345
2	4357	267.179211492854	346
2	4365	267.916732607498	347
2	4371	268.491979866581	348
2	4382	268.92956932449	349
2	4399	269.804748240308	350
2	4405	270.679927156126	351
2	4423	271.992695529853	352
2	4429	272.867874445671	353
2	4432	273.30546390358	354
2	4459	275.493411193125	355
2	4464	275.781320047444	356
2	4468	275.931000651034	357
2	4471	276.1571302233	358
2	4474	276.368590108943	359
2	4482	277.243769024761	360
2	4497	278.556537398488	361
2	4502	278.796359006244	362
2	4506	278.994126856397	363
2	4511	279.431716314306	364
2	4514	279.869305772215	365
2	4518	280.306895230124	366
2	4521	280.57901942045	367
2	4539	281.619663603851	368
2	4545	282.05725306176	369
2	4563	283.807610893396	370
2	4569	284.682789809214	371
2	4571	284.949072787731	372
2	4577	285.0009086176	373
2	4583	285.120379267123	374
2	4589	285.557968725032	375
2	4597	286.43314764085	376
2	4606	287.308326556668	377
2	4609	287.745916014577	378
2	4613	288.183505472486	379
2	4618	288.828076698576	380
2	4624	289.058684388304	381
2	4641	289.933863304122	382
2	4647	290.371452762031	383
2	4650	290.80904221994	384
2	4652	291.002805642183	385
2	4659	291.684221135758	386
2	4662	291.965827632616	387
2	4672	292.836291761631	388
2	4679	292.996989509485	389
2	4691	293.8446870119	390
2	4694	293.872168425303	391
2	4697	294.309757883212	392
2	4700	294.747347341121	393
2	4715	296.060115714848	394
2	4725	296.586084520266	395
2	4734	297.372884088575	396
2	4737	297.810473546484	397
2	4745	298.26657620905	398
2	4748	298.685652462302	399
2	4755	299.56083137812	400
2	4764	300.436010293938	401
2	4766	300.465088431111	402
2	4778	301.311189209756	403
2	4784	301.748778667665	404
2	4787	301.96464927512	405
2	4792	302.380131547817	406
2	4801	302.6884654062	407
2	4807	303.061547041392	408
2	4810	303.499136499301	409
2	4815	303.93672595721	410
2	4837	305.687083788846	411
2	4843	306.124673246755	412
2	4846	306.562262704664	413
2	4858	307.437441620482	414
2	4861	307.875031078391	415
2	4863	308.223096252801	416
2	4866	308.3126205363	417
2	4872	308.750209994209	418
2	4875	309.187799452118	419
2	4896	310.938157283754	420
2	4904	311.5322438005	421
2	4909	311.813336199572	422
2	4912	311.963470917624	423
2	4914	312.102100163646	424
2	4917	312.250925657481	425
2	4923	312.68851511539	426
2	4934	313.563694031208	427
2	4937	314.001283489117	428
2	4942	314.673803583861	429
2	4946	314.876462404935	430
2	4952	315.751641320753	431
2	4961	316.189230778662	432
2	4972	316.698246888093	433
2	4976	317.06440969448	434
2	5013	320.3760221948	435
2	5036	322.315483189388	436
2	5039	322.753072647297	437
2	5048	323.628251563115	438
2	5054	324.065841021024	439
2	5073	325.450036046273	440
2	5077	325.81619885266	441
2	5103	328.441735600114	442
2	5114	329.2198005891	443
2	5117	329.316914515932	444
2	5123	330.19209343175	445
2	5141	331.504861805477	446
2	5147	331.942451263386	447
2	5150	331.961114202632	448
2	5165	333.64168978625	449
2	5168	333.692809095022	450
2	5183	335.005577468749	451
2	5189	335.443166926658	452
2	5195	335.880756384567	453
2	5203	336.318345842476	454
2	5205	336.335566738291	455
2	5208	336.755935300385	456
2	5222	338.0635789834	457
2	5233	339.255127539561	458
2	5236	339.381472047839	459
2	5265	341.959935845136	460
2	5268	342.007008795293	461
2	5274	342.48546818055	462
2	5283	343.31977716902	463
2	5289	343.757366626929	464
2	5291	343.821051190845	465
2	5298	344.194956084838	466
2	5304	345.070135000656	467
2	5310	345.945313916474	468
2	5320	346.820492832292	469
2	5323	346.9073573777	470
2	5341	348.570850663928	471
2	5355	349.883619037655	472
2	5371	350.758797953473	473
2	5373	350.892139272096	474
2	5379	351.196387411382	475
2	5382	351.32924657485	476
2	5390	351.95875748764	477
2	5396	352.509155785109	478
2	5399	352.946745243018	479
2	5408	354.259513616745	480
2	5411	354.697103074654	481
2	5413	354.771143182941	482
2	5430	355.751135772	483
2	5433	356.009871448381	484
2	5436	356.44746090629	485
2	5439	356.885050364199	486
2	5442	357.322639822108	487
2	5454	358.197818737926	488
2	5457	358.635408195835	489
2	5474	359.510587111653	490
2	5477	359.948176569562	491
2	5480	360.17302496915	492
2	5497	361.698534401198	493
2	5500	361.957579130144	494
2	5506	362.136123859107	495
2	5509	362.573713317016	496
2	5511	362.645139968538	497
2	5519	363.011302774925	498
2	5522	363.448892232834	499
2	5536	364.5949141663	500
2	5539	364.761660606561	501
2	5542	365.19925006447	502
2	5548	366.074428980288	503
2	5554	366.512018438197	504
2	5560	366.949607896106	505
2	5563	367.387197354015	506
2	5578	368.699965727742	507
2	5581	369.01680336345	508
2	5584	369.137555185651	509
2	5590	369.57514464356	510
2	5599	370.450323559378	511
2	5608	370.887913017287	512
2	5614	371.325502475196	513
2	5620	371.956400772648	514
2	5638	373.513449764741	515
2	5644	373.95103922265	516
2	5650	374.388628680559	517
2	5653	374.826218138468	518
2	5668	376.138986512195	519
2	5676	377.014165428013	520
2	5679	377.451754885922	521
2	5682	377.86058175775	522
2	5687	378.045166648011	523
2	5696	378.32693380174	524
2	5707	379.639702175467	525
2	5710	380.077291633376	526
2	5713	380.514881091285	527
2	5716	380.952470549194	528
2	5719	381.390060007103	529
2	5725	381.827649465012	530
2	5731	381.955222415152	531
2	5753	383.140417838739	532
2	5759	384.015596754557	533
2	5765	384.890775670375	534
2	5775	385.762624033574	535
2	5791	386.641133502011	536
2	5794	386.70436015205	537
2	5797	387.07872295992	538
2	5809	388.391491333647	539
2	5812	388.829080791556	540
2	5817	389.266670249465	541
2	5819	389.460433671708	542
2	5822	389.682178380546	543
2	5845	391.45461753901	544
2	5851	391.892206996919	545
2	5854	391.954044057656	546
2	5857	392.329796454828	547
2	5859	392.358071482801	548
2	5863	392.767385912737	549
2	5885	394.606402427874	550
2	5895	395.54813854635	551
2	5898	395.8305121181	552
2	5906	396.705691033918	553
2	5915	397.143280491827	554
2	5918	397.580869949736	555
2	5927	398.456048865554	556
2	5933	398.893638323463	557
2	5955	401.319190113081	558
2	5967	401.95286570016	559
2	5993	404.39191694065	560
2	5996	404.58230127628	561
2	5998	404.710685917991	562
2	6016	405.457480192098	563
2	6033	407.207838023734	564
2	6039	407.645427481643	565
2	6042	408.083016939552	566
2	6053	408.95819585537	567
2	6059	409.395785313279	568
2	6065	410.270964229097	569
2	6071	410.708553687006	570
2	6085	412.021322060733	571
2	6093	412.531558406844	572
2	6103	413.23569533495	573
2	6106	413.33409043446	574
2	6117	414.646858808187	575
2	6123	415.084448266096	576
2	6126	415.522037724005	577
2	6129	415.959627181914	578
2	6135	416.834806097732	579
2	6137	416.835205756461	580
2	6149	417.272395555641	581
2	6159	417.903748435793	582
2	6163	418.147574471459	583
2	6166	418.585163929368	584
2	6175	419.460342845186	585
2	6181	420.335521761004	586
2	6195	421.210700676822	587
2	6201	421.648290134731	588
2	6204	421.950508985168	589
2	6207	422.07947372925	590
2	6210	422.08587959264	591
2	6241	425.586595255912	592
2	6262	426.5013629264	593
2	6265	426.899363629639	594
2	6268	427.336953087548	595
2	6278	428.472217488996	596
2	6301	430.400079292911	597
2	6307	430.92325212355	598
2	6310	431.275258208729	599
2	6313	431.712847666638	600
2	6319	431.949330627672	601
2	6328	432.588026582456	602
2	6340	433.463205498274	603
2	6346	434.338384414092	604
2	6349	434.775973872001	605
2	6363	435.651152787819	606
2	6375	436.230225310686	607
2	6381	436.526331703637	608
2	6384	436.963921161546	609
2	6387	437.401510619455	610
2	6390	437.839100077364	611
2	6411	439.76703051785	612
2	6420	440.027047366909	613
2	6422	440.109229221531	614
2	6434	441.339815740636	615
2	6442	441.948152270176	616
2	6445	442.214994656454	617
2	6451	442.652584114363	618
2	6459	443.527763030181	619
2	6462	443.96535248809	620
2	6483	444.840531403908	621
2	6501	447.028478693453	622
2	6513	447.903657609271	623
2	6522	448.61080891215	624
2	6528	449.216425982998	625
2	6531	449.654015440907	626
2	6534	450.091604898816	627
2	6550	451.404373272543	628
2	6559	451.94697391268	629
2	6570	452.71714164627	630
2	6573	453.0326981093	631
2	6589	454.101336671519	632
2	6593	454.467499477906	633
2	6596	454.905088935815	634
2	6599	455.342678393724	635
2	6616	456.655446767451	636
2	6622	457.45458730645	637
2	6625	457.530625683269	638
2	6634	458.405804599087	639
2	6637	458.843394056996	640
2	6640	459.280983514905	641
2	6642	459.504248775756	642
2	6666	461.031341346541	643
2	6669	461.46893080445	644
2	6672	461.8764765036	645
2	6678	461.945795555184	646
2	6686	462.781699178177	647
2	6696	463.383252686601	648
2	6702	463.656878093995	649
2	6705	464.094467551904	650
2	6708	464.532057009813	651
2	6724	466.038588805783	652
2	6728	466.282414841449	653
2	6731	466.29836570075	654
2	6734	466.720004299358	655
2	6745	467.262256597446	656
2	6751	467.595183215176	657
2	6762	468.907951588903	658
2	6765	469.345541046812	659
2	6768	469.783130504721	660
2	6771	470.22071996263	661
2	6774	470.658309420539	662
2	6777	470.7202548979	663
2	6794	471.944617197688	664
2	6797	471.971077794266	665
2	6799	472.042504445788	666
2	6808	472.846256710084	667
2	6814	473.283846167993	668
2	6834	475.034203999629	669
2	6843	475.471793457538	670
2	6846	475.909382915447	671
2	6849	476.346972373356	672
2	6869	478.534919662901	673
2	6872	478.97250912081	674
2	6881	479.5640332922	675
2	6884	479.847688036628	676
2	6906	481.160456410355	677
2	6909	481.598045868264	678
2	6912	481.943438840192	679
2	6918	482.473224784082	680
2	6920	482.778272240826	681
2	6934	483.785993157809	682
2	6936	483.979756580052	683
2	6949	484.661172073627	684
2	6952	485.098761531536	685
2	6955	485.536350989445	686
2	6958	485.973940447354	687
2	6969	486.482956556785	688
2	6979	487.286708821081	689
2	6985	487.72429827899	690
2	6990	488.161887736899	691
2	6993	488.4078116865	692
2	6996	488.599477194808	693
2	7014	490.349835026444	694
2	7026	491.225013942262	695
2	7034	491.942260482696	696
2	7037	492.10019285808	697
2	7040	492.537782315989	698
2	7043	492.82970088365	699
2	7049	493.412961231807	700
2	7052	493.850550689716	701
2	7055	494.288140147625	702
2	7074	495.234745714965	703
2	7081	496.038497979261	704
2	7092	497.2515900808	705
2	7115	498.664034726715	706
2	7121	499.539213642533	707
2	7143	501.289571474169	708
2	7146	501.67347927795	709
2	7152	501.9410821252	710
2	7181	504.352697679532	711
2	7184	504.790287137441	712
2	7187	505.22787659535	713
2	7193	505.665466053259	714
2	7196	506.0953684751	715
2	7199	506.103055511168	716
2	7205	506.540644969077	717
2	7219	507.853413342804	718
2	7225	508.291002800713	719
2	7248	510.041360632349	720
2	7254	510.478950090258	721
2	7257	510.51725767225	722
2	7260	510.916539548167	723
2	7263	511.354129006076	724
2	7266	511.791718463985	725
2	7269	511.939903767704	726
2	7300	514.417255211439	727
2	7309	514.9391468694	728
2	7312	515.292434127257	729
2	7315	515.730023585166	730
2	7328	516.798965923227	731
2	7340	517.689307438431	732
2	7357	519.230739248438	733
2	7360	519.36103606655	734
2	7369	520.543507622165	735
2	7378	520.981097080074	736
2	7381	521.418686537983	737
2	7390	521.856275995892	738
2	7393	521.938725410208	739
2	7412	523.7829252637	740
2	7444	526.232170574982	741
2	7450	527.1073494908	742
2	7459	527.982528406618	743
2	7465	528.420117864527	744
2	7471	528.857707322436	745
2	7474	529.295296780345	746
2	7483	530.170475696163	747
2	7486	530.608065154072	748
2	7489	531.045654611981	749
2	7493	531.239418034224	750
2	7497	531.48324406989	751
2	7505	531.937547052712	752
2	7519	532.796012443617	753
2	7528	533.671191359435	754
2	7534	534.108780817344	755
2	7551	535.85913864898	756
2	7562	536.734317564798	757
2	7565	537.04859285515	758
2	7568	537.171907022707	759
2	7577	538.047085938525	760
2	7580	538.484675396434	761
2	7583	538.922264854343	762
2	7586	539.359854312252	763
2	7592	540.23503322807	764
2	7636	543.735748891342	765
2	7648	544.61092780716	766
2	7665	545.486106722978	767
2	7668	545.89237124945	768
2	7686	548.111643470432	769
2	7692	548.549232928341	770
2	7694	548.620659579863	771
2	7701	548.98682238625	772
2	7709	549.424411844159	773
2	7712	549.862001302068	774
2	7715	550.299590759977	775
2	7718	550.3142604466	776
2	7729	551.612359133704	777
2	7732	551.93519033772	778
2	7743	552.600342636036	779
2	7749	552.925127507431	780
2	7752	553.36271696534	781
2	7760	554.237895881158	782
2	7766	554.73614964375	783
2	7775	555.113074796976	784
2	7787	555.988253712794	785
2	7790	556.425843170703	786
2	7792	556.479346546881	787
2	7798	556.863432628612	788
2	7810	558.613790460248	789
2	7818	559.1580388409	790
2	7832	560.364148291884	791
2	7850	561.934011980224	792
2	7853	562.11450612352	793
2	7866	563.06111169086	794
2	7872	563.572015555	795
2	7879	563.864863955156	796
2	7888	564.740042870974	797
2	7903	566.052811244701	798
2	7906	566.49040070261	799
2	7914	566.927990160519	800
2	7923	568.0018172352	801
2	7937	569.115937450064	802
2	7957	571.303884739609	803
2	7968	571.81290084904	804
2	7972	571.932833622728	805
2	7975	572.179063655427	806
2	7987	572.616653113336	807
2	8002	574.804600402881	808
2	8005	575.24218986079	809
2	8008	575.679779318699	810
2	8017	576.117368776608	811
2	8023	576.554958234517	812
2	8025	576.631844438124	813
2	8029	576.8455956295	814
2	8046	578.305316066153	815
2	8055	579.180494981971	816
2	8072	580.055673897789	817
2	8089	581.26748482665	818
2	8092	581.368442271516	819
2	8095	581.806031729425	820
2	8098	581.931655265232	821
2	8101	582.243621187334	822
2	8104	582.681210645243	823
2	8113	583.556389561061	824
2	8119	583.99397901897	825
2	8123	584.065405670492	826
2	8127	584.431568476879	827
2	8139	585.6893740238	828
2	8142	585.744336850606	829
2	8145	586.181926308515	830
2	8156	587.494694682242	831
2	8162	587.932284140151	832
2	8181	589.682641971787	833
2	8193	590.120231429696	834
2	8196	590.557820887605	835
2	8199	590.995410345514	836
2	8201	591.390381744486	837
2	8210	591.870589261332	838
2	8215	591.930476907736	839
2	8218	592.308178719241	840
2	8224	592.74576817715	841
2	8230	593.620947092968	842
2	8236	594.496126008786	843
2	8244	595.269385655331	844
2	8257	595.808894382513	845
2	8259	596.161019621151	846
2	8263	596.246483840422	847
2	8272	597.12166275624	848
2	8289	598.95504161525	849
2	8312	600.622378419512	850
2	8315	601.059967877421	851
2	8324	601.92929855024	852
2	8327	601.935146793239	853
2	8330	602.372736251148	854
2	8333	602.810325709057	855
2	8339	603.247915166966	856
2	8342	603.3769308124	857
2	8345	603.685504624875	858
2	8357	604.560683540693	859
2	8360	604.998272998602	860
2	8374	606.906397387866	861
2	8387	607.623809746056	862
2	8390	607.79882000955	863
2	8396	608.498988661874	864
2	8402	608.936578119783	865
2	8408	609.374167577692	866
2	8411	609.811757035601	867
2	8413	609.836043457091	868
2	8417	610.24934649351	869
2	8423	610.686935951419	870
2	8425	610.758362602941	871
2	8435	611.562114867237	872
2	8438	611.928120192744	873
2	8441	611.999704325146	874
2	8444	612.2207092067	875
2	8464	614.187651614691	876
2	8467	614.6252410726	877
2	8469	614.664405209556	878
2	8475	615.062830530509	879
2	8478	615.500419988418	880
2	8491	616.64259840385	881
2	8500	617.250777820054	882
2	8506	617.688367277963	883
2	8509	618.125956735872	884
2	8514	618.543409120401	885
2	8517	618.563546193781	886
2	8529	619.876314567508	887
2	8538	621.064487601	888
2	8541	621.189082941235	889
2	8550	621.926941835248	890
2	8553	622.064261857053	891
2	8555	622.422413031246	892
2	8558	622.501851314962	893
2	8567	622.939440772871	894
2	8573	623.814619688689	895
2	8596	625.48637679815	896
2	8599	625.564977520325	897
2	8601	625.758740942568	898
2	8605	626.002566978234	899
2	8607	626.301416942091	900
2	8619	626.877745894052	901
2	8625	627.315335351961	902
2	8631	628.190514267779	903
2	8634	628.628103725688	904
2	8637	629.065693183597	905
2	8643	629.9082659953	906
2	8646	629.940872099415	907
2	8671	631.925763477752	908
2	8677	632.566408846869	909
2	8693	633.950603872118	910
2	8700	634.316766678505	911
2	8703	634.33015519245	912
2	8721	636.067124510141	913
2	8724	636.50471396805	914
2	8727	636.942303425959	915
2	8730	637.379892883868	916
2	8736	637.817482341777	917
2	8748	638.255071799686	918
2	8754	638.7520443896	919
2	8763	639.567840173413	920
2	8766	640.005429631322	921
2	8769	640.443019089231	922
2	8774	640.88060854714	923
2	8777	641.318198005049	924
2	8780	641.755787462958	925
2	8783	641.924585120256	926
2	8798	642.630966378776	927
2	8804	643.17393358675	928
2	8807	643.506145294594	929
2	8810	643.943734752503	930
2	8813	644.381324210412	931
2	8825	645.694092584139	932
2	8837	646.569271499957	933
2	8843	647.006860957866	934
2	8846	647.444450415775	935
2	8852	647.5958227839	936
2	8863	648.757218789502	937
2	8866	649.194808247411	938
2	8874	649.63239770532	939
2	8880	650.069987163229	940
2	8883	650.507576621138	941
2	8897	651.820344994865	942
2	8912	652.695523910683	943
2	8915	653.133113368592	944
2	8917	653.454444318006	945
2	8932	654.883471200228	946
2	8935	655.321060658137	947
2	8938	655.758650116046	948
2	8944	656.196239573955	949
2	8947	656.4396011782	950
2	8957	657.333448228851	951
2	8960	657.509007947682	952
2	8965	657.698626882881	953
2	8969	657.946597405591	954
2	8972	658.3841868635	955
2	8989	659.696955237227	956
2	9007	660.86149037535	957
2	9012	661.212452139696	958
2	9018	661.447313068863	959
2	9021	661.884902526772	960
2	9024	661.922228405264	961
2	9027	662.322491984681	962
2	9030	662.76008144259	963
2	9033	663.197670900499	964
2	9036	663.635260358408	965
2	9054	665.2833795725	966
2	9075	667.13597602168	967
2	9080	667.573565479589	968
2	9083	668.011154937498	969
2	9092	668.448744395407	970
2	9105	669.323923311225	971
2	9108	669.70526876965	972
2	9114	670.199102227043	973
2	9120	670.636691684952	974
2	9123	671.074281142861	975
2	9126	671.51187060077	976
2	9129	671.921050047768	977
2	9132	671.949460058679	978
2	9141	672.824638974497	979
2	9153	673.699817890315	980
2	9156	674.1271579668	981
2	9162	674.574996806133	982
2	9175	675.88776517986	983
2	9181	676.325354637769	984
2	9184	676.762944095678	985
2	9190	677.200533553587	986
2	9224	680.26365975895	987
2	9227	680.701249216859	988
2	9233	681.138838674768	989
2	9239	681.919871690272	990
2	9257	682.9709363611	991
2	9260	683.326785964313	992
2	9273	684.201964880131	993
2	9276	684.63955433804	994
2	9285	685.077143795949	995
2	9294	685.952322711767	996
2	9297	686.389912169676	997
2	9303	687.265091085494	998
2	9308	687.39282555825	999
2	9311	687.702680543403	1000
2	9316	688.365479515611	1001
2	9328	689.01544891713	1002
2	9340	690.765806748766	1003
2	9343	691.203396206675	1004
2	9349	691.8147147554	1005
2	9352	691.918693332776	1006
2	9359	692.244483426456	1007
2	9391	695.141701327856	1008
2	9405	696.088306895196	1009
2	9409	696.23660395255	1010
2	9418	696.892059159492	1011
2	9426	697.76723807531	1012
2	9429	698.204827533219	1013
2	9432	698.642416991128	1014
2	9434	698.723698390701	1015
2	9447	699.517595906946	1016
2	9450	699.955185364855	1017
2	9452	700.002491248146	1018
2	9461	700.6584931497	1019
2	9464	700.830364280673	1020
2	9467	701.267953738582	1021
2	9470	701.705543196491	1022
2	9473	701.91751497528	1023
2	9481	702.580722112309	1024
2	9484	703.018311570218	1025
2	9495	703.893490486036	1026
2	9501	704.331079943945	1027
2	9513	705.206258859763	1028
2	9516	705.643848317672	1029
2	9543	707.831795607217	1030
2	9549	708.269385065126	1031
2	9552	708.706974523035	1032
2	9558	709.502271544	1033
2	9567	710.019742896762	1034
2	9570	710.457332354671	1035
2	9573	710.89492181258	1036
2	9578	711.639502980681	1037
2	9587	711.916336617784	1038
2	9598	712.645279644216	1039
2	9613	713.92416074115	1040
2	9616	713.958048017943	1041
2	9619	714.395637475852	1042
2	9622	714.833226933761	1043
2	9628	715.27081639167	1044
2	9630	715.518506891526	1045
2	9633	715.708405849579	1046
2	9647	716.583584765397	1047
2	9653	717.021174223306	1048
2	9659	717.896353139124	1049
2	9665	718.3460499383	1050
2	9668	718.771532054942	1051
2	9671	719.209121512851	1052
2	9680	719.64671097076	1053
2	9689	720.084300428669	1054
2	9691	720.219594715494	1055
2	9695	720.521889886578	1056
2	9703	721.397068802396	1057
2	9706	721.834658260305	1058
2	9709	721.915158260288	1059
2	9712	722.272247718214	1060
2	9718	722.76793913545	1061
2	9721	723.147426634032	1062
2	9723	723.276514713216	1063
2	9735	724.460195007759	1064
2	9741	724.897784465668	1065
2	9749	725.772963381486	1066
2	9755	726.648142297304	1067
2	9761	727.085731755213	1068
2	9764	727.1898283326	1069
2	9770	727.523321213122	1070
2	9776	727.960910671031	1071
2	9786	728.663690202705	1072
2	9790	728.836089586849	1073
2	9816	731.61171752975	1074
2	9819	731.899215792212	1075
2	9822	731.913979902792	1076
2	9825	732.336805250121	1077
2	9828	732.77439470803	1078
2	9834	733.211984165939	1079
2	9861	735.399931455484	1080
2	9864	735.837520913393	1081
2	9867	736.0336067269	1082
2	9870	736.275110371302	1083
2	9879	737.587878745029	1084
2	9890	738.792530356596	1085
2	9912	740.213415492483	1086
2	9918	740.45549592405	1087
2	9930	741.088594408301	1088
2	9933	741.52618386621	1089
2	9936	741.912801545296	1090
2	9942	742.401362782028	1091
2	9966	744.589310071573	1092
2	9969	744.8773851212	1093
2	9975	745.464488987391	1094
2	9978	745.9020784453	1095
2	9995	747.214846819027	1096
2	10001	747.652436276936	1097
2	10004	748.090025734845	1098
2	10018	749.29927431835	1099
2	10021	749.402794108572	1100
2	10024	749.840383566481	1101
2	10039	751.153151940208	1102
2	10048	751.9116231878	1103
2	10053	752.099757507548	1104
2	10062	752.903509771844	1105
2	10068	753.7211635155	1106
2	10071	753.778688687662	1107
2	10080	754.216278145571	1108
2	10089	754.65386760348	1109
2	10092	755.091457061389	1110
2	10101	756.404225435116	1111
2	10107	757.279404350934	1112
2	10117	757.787102183591	1113
2	10121	758.14305271265	1114
2	10124	758.154583266752	1115
2	10130	758.592172724661	1116
2	10139	759.467351640479	1117
2	10164	761.655298930024	1118
2	10167	761.910444830304	1119
2	10173	762.092888387933	1120
2	10179	762.530477845842	1121
2	10188	762.968067303751	1122
2	10191	763.40565676166	1123
2	10197	763.843246219569	1124
2	10200	764.280835677478	1125
2	10206	765.156014593296	1126
2	10209	765.593604051205	1127
2	10215	766.031193509114	1128
2	10229	766.98683110695	1129
2	10232	767.343961882841	1130
2	10247	768.656730256568	1131
2	10250	769.094319714477	1132
2	10253	769.531909172386	1133
2	10281	771.4087203041	1134
2	10284	771.719856461931	1135
2	10287	771.909266472808	1136
2	10290	772.15744591984	1137
2	10293	772.595035377749	1138
2	10301	773.541640945089	1139
2	10305	773.907803751476	1140
2	10314	774.345393209385	1141
2	10326	775.220572125203	1142
2	10335	775.83060950125	1143
2	10338	776.095751041021	1144
2	10341	776.53334049893	1145
2	10349	777.408519414748	1146
2	10353	777.582569465046	1147
2	10362	778.283698330566	1148
2	10365	778.721287788475	1149
2	10368	779.158877246384	1150
2	10371	779.596466704293	1151
2	10388	780.90923507802	1152
2	10391	781.346824535929	1153
2	10403	781.908088115312	1154
2	10406	782.222003451747	1155
2	10409	782.659592909656	1156
2	10415	783.534771825474	1157
2	10426	784.67438789555	1158
2	10439	785.340577286736	1159
2	10448	785.722719115019	1160
2	10454	786.160308572928	1161
2	10457	786.597898030837	1162
2	10460	787.035487488746	1163
2	10463	787.473076946655	1164
2	10474	788.348255862473	1165
2	10477	788.785845320382	1166
2	10491	789.6610242362	1167
2	10497	790.536203152018	1168
2	10500	790.973792609927	1169
2	10503	791.411382067836	1170
2	10509	791.848971525745	1171
2	10512	791.906909757816	1172
2	10519	792.576430171374	1173
2	10523	792.724150441563	1174
2	10535	793.51816628985	1175
2	10538	793.599329357381	1176
2	10544	794.474508273199	1177
2	10547	794.912097731108	1178
2	10556	795.349687189017	1179
2	10565	796.224866104835	1180
2	10568	796.662455562744	1181
2	10582	797.537634478562	1182
2	10602	799.725581768107	1183
2	10610	800.600760683925	1184
2	10612	800.856592930116	1185
2	10618	801.038350141834	1186
2	10624	801.475939599743	1187
2	10639	802.351118515561	1188
2	10642	802.36194468415	1189
2	10651	803.663886889288	1190
2	10654	804.101476347197	1191
2	10656	804.438349625451	1192
2	10668	804.976655263015	1193
2	10674	805.414244720924	1194
2	10683	806.289423636742	1195
2	10692	806.7838338813	1196
2	10695	807.16460255256	1197
2	10698	807.602192010469	1198
2	10701	808.039781468378	1199
2	10706	808.477370926287	1200
2	10708	808.614600751806	1201
2	10720	808.914960384196	1202
2	10729	809.790139300014	1203
2	10732	810.227728757923	1204
2	10746	811.54049713165	1205
2	10755	812.415676047468	1206
2	10761	812.853265505377	1207
2	10770	814.166033879104	1208
2	10776	814.603623337013	1209
2	10779	815.041212794922	1210
2	10794	815.91639171074	1211
2	10802	816.372608573496	1212
2	10811	816.791570626558	1213
2	10814	817.229160084467	1214
2	10828	818.979517916103	1215
2	10842	820.251612484341	1216
2	10854	820.729875747739	1217
2	10857	821.167465205648	1218
2	10860	821.605054663557	1219
2	10863	821.903374685328	1220
2	10866	822.042644121466	1221
2	10869	822.480233579375	1222
2	10875	822.917823037284	1223
2	10888	824.130616395186	1224
2	10891	824.230591411011	1225
2	10911	825.543359784738	1226
2	10914	825.980949242647	1227
2	10920	826.856128158465	1228
2	10923	827.293717616374	1229
2	10932	828.168896532192	1230
2	10938	828.606485990101	1231
2	10952	829.481664905919	1232
2	10961	830.794433279646	1233
2	10966	831.409107788297	1234
2	10973	831.669612195464	1235
2	10975	831.888624216876	1236
2	10978	831.902196327832	1237
2	11007	833.4199700271	1238
2	11010	833.857559485009	1239
2	11022	835.607917316645	1240
2	11034	836.045506774554	1241
2	11043	836.920685690372	1242
2	11046	837.358275148281	1243
2	11057	838.233454064099	1244
2	11070	839.646632038566	1245
2	11079	839.983811895735	1246
2	11085	840.421401353644	1247
2	11091	841.296580269462	1248
2	11097	841.901017970336	1249
2	11114	843.046938101098	1250
2	11120	843.484527559007	1251
2	11122	843.525635949411	1252
2	11128	843.922117016916	1253
2	11131	844.359706474825	1254
2	11137	845.234885390643	1255
2	11143	845.672474848552	1256
2	11146	846.110064306461	1257
2	11155	846.58083665565	1258
2	11160	846.985243222279	1259
2	11163	847.422832680188	1260
2	11175	848.298011596006	1261
2	11178	848.735601053915	1262
2	11181	849.173190511824	1263
2	11184	849.610779969733	1264
2	11190	850.048369427642	1265
2	11195	850.485958885551	1266
2	11203	851.0027258528	1267
2	11206	851.361137801369	1268
2	11212	851.798727259278	1269
2	11215	851.89983961284	1270
2	11224	853.111495633005	1271
2	11227	853.549085090914	1272
2	11230	853.986674548823	1273
2	11233	854.424264006732	1274
2	11235	854.482878931474	1275
2	11255	855.42461504995	1276
2	11261	856.174621838368	1277
2	11263	856.441532758381	1278
2	11275	857.487390212095	1279
2	11287	858.800158585822	1280
2	11289	858.871585237344	1281
2	11293	859.237748043731	1282
2	11311	860.112926959549	1283
2	11320	861.425695333276	1284
2	11323	861.863284791185	1285
2	11326	861.898661255344	1286
2	11329	862.300874249094	1287
2	11332	862.738463707003	1288
2	11338	863.176053164912	1289
2	11344	863.613642622821	1290
2	11358	864.488821538639	1291
2	11364	865.364000454457	1292
2	11367	865.801589912366	1293
2	11372	866.239179370275	1294
2	11378	866.676768828184	1295
2	11380	866.799659414481	1296
2	11392	867.551947744002	1297
2	11417	870.177484491456	1298
2	11423	870.615073949365	1299
2	11432	871.052663407274	1300
2	11438	871.897482897848	1301
2	11441	871.927842323092	1302
2	11458	873.678200154728	1303
2	11463	874.115789612637	1304
2	11466	874.553379070546	1305
2	11472	874.990968528455	1306
2	11481	875.428557986364	1307
2	11487	876.303736902182	1308
2	11489	876.592324917224	1309
2	11493	876.741326360091	1310
2	11517	878.491684191727	1311
2	11523	878.929273649636	1312
2	11535	880.242042023363	1313
2	11540	880.862316707051	1314
2	11547	881.55481039709	1315
2	11558	881.992399854999	1316
2	11563	882.429989312908	1317
2	11569	882.867578770817	1318
2	11572	883.305168228726	1319
2	11577	883.742757686635	1320
2	11592	885.055526060362	1321
2	11595	885.493115518271	1322
2	11600	886.194678968706	1323
2	11623	887.681062807816	1324
2	11626	888.118652265725	1325
2	11632	888.556241723634	1326
2	11644	889.869010097361	1327
2	11650	890.30659955527	1328
2	11659	890.79972862715	1329
2	11664	891.157392664744	1330
2	11668	891.181778471088	1331
2	11671	891.619367928997	1332
2	11674	891.895126182856	1333
2	11677	892.056957386906	1334
2	11683	892.932136302724	1335
2	11689	893.807315218542	1336
2	11691	893.952686790396	1337
2	11711	895.2216178243	1338
2	11714	895.557673050178	1339
2	11717	895.995262508087	1340
2	11720	896.432851965996	1341
2	11723	896.870441423905	1342
2	11744	898.183209797632	1343
2	11747	898.620799255541	1344
2	11761	899.933567629268	1345
2	11764	900.371157087177	1346
2	11767	900.808746545086	1347
2	11775	901.246336002995	1348
2	11780	901.710694612086	1349
2	11783	901.89394782536	1350
2	11798	902.996693834631	1351
2	11809	904.0653962186	1352
2	11812	904.309462208358	1353
2	11818	904.747051666267	1354
2	11823	905.184641124176	1355
2	11825	905.589698522931	1356
2	11828	905.622230582085	1357
2	11834	906.059820039994	1358
2	11846	907.372588413721	1359
2	11849	907.81017787163	1360
2	11852	908.247767329539	1361
2	11863	909.122946245357	1362
2	11880	910.873304076993	1363
2	11883	911.310893534902	1364
2	11889	911.748482992811	1365
2	11892	911.892769467864	1366
2	11906	912.9091746129	1367
2	11911	913.347706344621	1368
2	11926	913.936430282356	1369
2	11935	915.249198656083	1370
2	11938	915.686788113992	1371
2	11944	916.56196702981	1372
2	11947	916.999556487719	1373
2	11954	917.33106381005	1374
2	11957	917.437145945628	1375
2	11963	917.874735403537	1376
2	11974	918.507440336624	1377
2	11978	918.749914319355	1378
2	11981	919.187503777264	1379
2	11987	920.062682693082	1380
2	11993	920.9378616089	1381
2	11995	921.105714166311	1382
2	11997	921.279153881234	1383
2	12009	921.7529530072	1384
2	12015	921.891591110368	1385
2	12024	922.250629982627	1386
2	12030	923.125808898445	1387
2	12033	923.563398356354	1388
2	12042	924.438577272172	1389
2	12045	924.876166730081	1390
2	12047	924.984718077156	1391
2	12082	927.939292935444	1392
2	12098	929.252061309171	1393
2	12101	929.68965076708	1394
2	12112	930.5967314015	1395
2	12118	931.002419140807	1396
2	12130	931.890412752872	1397
2	12145	933.190366430352	1398
2	12148	933.627955888261	1399
2	12151	934.06554534617	1400
2	12153	934.259308768413	1401
2	12157	934.503134804079	1402
2	12168	935.378313719897	1403
2	12174	935.815903177806	1404
2	12182	936.621729809691	1405
2	12185	936.691082093624	1406
2	12191	937.128671551533	1407
2	12193	937.156946579506	1408
2	12228	940.500733720536	1409
2	12231	940.629387214805	1410
2	12246	941.889234395376	1411
2	12258	943.254923962259	1412
2	12270	944.130102878077	1413
2	12273	944.567692335986	1414
2	12279	945.005281793895	1415
2	12282	945.442871251804	1416
2	12296	946.318050167622	1417
2	12305	947.19322908344	1418
2	12314	948.068407999258	1419
2	12320	948.2842881901	1420
2	12326	948.505997457167	1421
2	12334	949.381176372985	1422
2	12340	950.256355288803	1423
2	12346	950.693944746712	1424
2	12349	951.131534204621	1425
2	12354	951.711639355591	1426
2	12358	951.88805603788	1427
2	12378	952.70617738725	1428
2	12384	953.319481494166	1429
2	12389	953.757070952075	1430
2	12395	954.632249867893	1431
2	12398	955.069839325802	1432
2	12404	955.507428783711	1433
2	12409	955.94501824162	1434
2	12411	956.016444893142	1435
2	12418	956.382607699529	1436
2	12424	957.1280665844	1437
2	12427	957.257786615347	1438
2	12445	959.008144446983	1439
2	12451	959.445733904892	1440
2	12454	959.883323362801	1441
2	12460	960.32091282071	1442
2	12466	960.758502278619	1443
2	12480	961.886877680384	1444
2	12483	962.071270652346	1445
2	12494	963.384039026073	1446
2	12497	963.821628483982	1447
2	12503	964.259217941891	1448
2	12506	964.6968073998	1449
2	12517	965.571986315618	1450
2	12520	965.9718449787	1451
2	12529	966.447165231436	1452
2	12532	966.884754689345	1453
2	12540	967.759933605163	1454
2	12546	968.197523063072	1455
2	12552	968.635112520981	1456
2	12561	969.947880894708	1457
2	12590	971.885699322888	1458
2	12605	973.011007100071	1459
2	12608	973.44859655798	1460
2	12614	974.323775473798	1461
2	12617	974.761364931707	1462
2	12620	974.815623373	1463
2	12623	975.198954389616	1464
2	12632	975.636543847525	1465
2	12643	976.949312221252	1466
2	12646	977.386901679161	1467
2	12655	977.82449113707	1468
2	12670	979.23751257015	1469
2	12676	979.574848968706	1470
2	12682	980.012438426615	1471
2	12684	980.045047598354	1472
2	12687	980.206201848858	1473
2	12694	980.887617342433	1474
2	12697	981.325206800342	1475
2	12700	981.762796258251	1476
2	12706	981.884520965392	1477
2	12717	983.169776739831	1478
2	12723	983.513154089887	1479
2	12726	983.6594017673	1480
2	12729	983.950743547796	1481
2	12743	985.263511921523	1482
2	12752	986.138690837341	1483
2	12755	986.57628029525	1484
2	12763	987.048780650676	1485
2	12777	988.08129096445	1486
2	12783	988.326638126886	1487
2	12786	988.764227584795	1488
2	12791	989.201817042704	1489
2	12797	990.076995958522	1490
2	12800	990.514585416431	1491
2	12802	990.927784561521	1492
2	12805	990.95217487434	1493
2	12811	991.389764332249	1494
2	12817	991.883342607896	1495
2	12823	992.5031801616	1496
2	12826	992.702532705976	1497
2	12850	994.015301079703	1498
2	12853	994.452890537612	1499
2	12862	995.32806945343	1500
2	12865	995.765658911339	1501
2	12868	996.203248369248	1502
2	12880	997.078427285066	1503
2	12888	997.953606200884	1504
2	12900	998.828785116702	1505
2	12906	999.266374574611	1506
2	12912	1000.141553490429	1507
2	12918	1000.579142948338	1508
2	12921	1001.016732406247	1509
2	12930	1001.8821642504	1510
2	12956	1003.642269153701	1511
2	12965	1004.517448069519	1512
2	12982	1005.830216443246	1513
2	12989	1006.443800204901	1514
2	13001	1007.142984816973	1515
2	13004	1007.580574274882	1516
2	13016	1008.893342648609	1517
2	13022	1009.768521564427	1518
2	13025	1010.1907369502	1519
2	13030	1010.322804115746	1520
2	13036	1010.643700480245	1521
2	13039	1011.081289938154	1522
2	13050	1011.880985892904	1523
2	13053	1011.956468853972	1524
2	13059	1012.394058311881	1525
2	13062	1012.83164776979	1526
2	13067	1013.269237227699	1527
2	13070	1013.706826685608	1528
2	13076	1014.144416143517	1529
2	13090	1014.61262614735	1530
2	13101	1015.894773975153	1531
2	13116	1017.20754234888	1532
2	13119	1017.645131806789	1533
2	13122	1018.082721264698	1534
2	13124	1018.092779226024	1535
2	13131	1018.520310722607	1536
2	13137	1019.0345153445	1537
2	13140	1019.395489638425	1538
2	13151	1020.708258012152	1539
2	13162	1021.58343692797	1540
2	13165	1021.879807535408	1541
2	13174	1022.458615843788	1542
2	13177	1022.896205301697	1543
2	13185	1023.45640454165	1544
2	13193	1023.771384217515	1545
2	13195	1023.842810869037	1546
2	13199	1024.208973675424	1547
2	13202	1024.646563133333	1548
2	13205	1025.084152591242	1549
2	13208	1025.521742049151	1550
2	13211	1025.95933150706	1551
2	13217	1026.396920964969	1552
2	13220	1026.834510422878	1553
2	13223	1027.272099880787	1554
2	13229	1027.709689338696	1555
2	13232	1027.8782937388	1556
2	13257	1030.076242918461	1557
2	13271	1031.210405001968	1558
2	13276	1031.647994459877	1559
2	13294	1032.523173375695	1560
2	13297	1032.960762833604	1561
2	13300	1033.398352291513	1562
2	13309	1034.273531207331	1563
2	13318	1035.148710123149	1564
2	13321	1035.586299581058	1565
2	13327	1036.461478496876	1566
2	13330	1036.7220721331	1567
2	13336	1037.336657412694	1568
2	13373	1039.962194160148	1569
2	13376	1040.399783618057	1570
2	13379	1040.837373075966	1571
2	13387	1041.274962533875	1572
2	13402	1041.877450820416	1573
2	13407	1042.218832288139	1574
2	13410	1042.587730907602	1575
2	13419	1043.900499281329	1576
2	13422	1044.338088739238	1577
2	13428	1045.213267655056	1578
2	13434	1045.5658505274	1579
2	13443	1046.526036028783	1580
2	13457	1047.401214944601	1581
2	13471	1048.713983318328	1582
2	13473	1049.112843224196	1583
2	13482	1049.589162234146	1584
2	13496	1050.901930607873	1585
2	13501	1051.095694030116	1586
2	13505	1051.339520065782	1587
2	13511	1051.777109523691	1588
2	13514	1051.87627246292	1589
2	13520	1052.652288439509	1590
2	13532	1053.527467355327	1591
2	13543	1054.402646271145	1592
2	13549	1054.840235729054	1593
2	13558	1055.715414644872	1594
2	13561	1056.153004102781	1595
2	13564	1056.59059356069	1596
2	13581	1057.903361934417	1597
2	13593	1058.83151811885	1598
2	13602	1060.091309223962	1599
2	13619	1061.404077597689	1600
2	13628	1061.841667055598	1601
2	13631	1061.875094105424	1602
2	13634	1062.279256513507	1603
2	13640	1062.716845971416	1604
2	13646	1063.154435429325	1605
2	13649	1063.253407316	1606
2	13655	1064.029614345143	1607
2	13658	1064.467203803052	1608
2	13664	1064.904793260961	1609
2	13669	1065.34238271887	1610
2	13672	1065.779972176779	1611
2	13707	1068.843098382142	1612
2	13710	1069.280687840051	1613
2	13717	1069.912040720203	1614
2	13721	1070.155866755869	1615
2	13724	1070.593456213778	1616
2	13733	1071.031045671687	1617
2	13736	1071.468635129596	1618
2	13739	1071.873915747928	1619
2	13745	1072.0971857103	1620
2	13748	1072.343814045414	1621
2	13754	1072.781403503323	1622
2	13777	1075.406940250777	1623
2	13786	1076.282119166595	1624
2	13811	1078.032476998231	1625
2	13819	1079.150162328181	1626
2	13832	1080.220424287776	1627
2	13841	1080.9409641046	1628
2	13850	1081.533192661503	1629
2	13853	1081.872737390432	1630
2	13862	1082.408371577321	1631
2	13868	1083.283550493139	1632
2	13875	1084.023878421801	1633
2	13878	1084.158729408957	1634
2	13890	1085.36285330175	1635
2	13901	1085.909087240593	1636
2	13906	1086.346676698502	1637
2	13912	1086.784266156411	1638
2	13915	1087.22185561432	1639
2	13918	1087.659445072229	1640
2	13921	1088.097034530138	1641
2	13930	1088.534623988047	1642
2	13933	1088.972213445956	1643
2	13948	1090.284981819683	1644
2	13951	1090.722571277592	1645
2	13957	1091.59775019341	1646
2	13959	1091.781886243491	1647
2	13962	1091.871559032936	1648
2	13968	1092.035339651319	1649
2	13976	1092.910518567137	1650
2	13992	1094.223286940864	1651
2	14004	1095.536055314591	1652
2	14006	1095.660890154336	1653
2	14018	1096.411234230409	1654
2	14020	1096.604997652652	1655
2	14033	1097.286413146227	1656
2	14036	1097.724002604136	1657
2	14042	1098.599181519954	1658
2	14045	1098.6285208932	1659
2	14048	1099.036770977863	1660
2	14051	1099.474360435772	1661
2	14060	1100.34953935159	1662
2	14071	1101.662307725317	1663
2	14074	1101.87038067544	1664
2	14077	1102.099897183226	1665
2	14082	1102.537486641135	1666
2	14093	1103.05041009035	1667
2	14096	1103.412665556953	1668
2	14108	1103.850255014862	1669
2	14114	1104.287844472771	1670
2	14117	1104.72543393068	1671
2	14120	1105.163023388589	1672
2	14123	1105.600612846498	1673
2	14132	1106.913381220225	1674
2	14135	1107.350970678134	1675
2	14138	1107.4722992875	1676
2	14144	1107.788560136043	1677
2	14159	1109.538917967679	1678
2	14201	1112.602044173042	1679
2	14206	1113.337721918031	1680
2	14210	1113.47722308886	1681
2	14221	1114.352402004678	1682
2	14227	1114.789991462587	1683
2	14230	1115.227580920496	1684
2	14248	1116.540349294223	1685
2	14254	1117.415528210041	1686
2	14257	1117.85311766795	1687
2	14260	1118.290707125859	1688
2	14275	1119.165886041677	1689
2	14281	1119.603475499586	1690
2	14284	1120.041064957495	1691
2	14290	1120.478654415404	1692
2	14299	1120.916243873313	1693
2	14302	1121.353833331222	1694
2	14308	1121.868023960448	1695
2	14314	1122.666601704949	1696
2	14329	1123.541780620767	1697
2	14335	1123.979370078676	1698
2	14341	1124.854548994494	1699
2	14344	1125.1598560761	1700
2	14347	1125.292138452403	1701
2	14353	1125.729727910312	1702
2	14355	1125.758002938285	1703
2	14359	1126.167317368221	1704
2	14364	1126.692921441096	1705
2	14373	1127.480085741948	1706
2	14401	1130.105622489402	1707
2	14407	1130.543211947311	1708
2	14409	1130.571925351941	1709
2	14433	1132.293569778947	1710
2	14436	1132.731159236856	1711
2	14451	1134.043927610583	1712
2	14463	1134.919106526401	1713
2	14472	1135.794285442219	1714
2	14475	1136.231874900128	1715
2	14492	1137.982232731764	1716
2	14520	1139.7325905634	1717
2	14526	1140.607769479218	1718
2	14529	1141.045358937127	1719
2	14535	1141.482948395036	1720
2	14538	1141.865667245456	1721
2	14559	1143.233306226672	1722
2	14568	1144.10848514249	1723
2	14571	1144.546074600399	1724
2	14573	1144.615856787381	1725
2	14578	1144.983664058308	1726
2	14581	1145.421253516217	1727
2	14606	1147.26930206185	1728
2	14618	1148.48437972158	1729
2	14627	1149.359558637398	1730
2	14630	1149.797148095307	1731
2	14642	1150.234737553216	1732
2	14645	1150.672327011125	1733
2	14654	1151.547505926943	1734
2	14657	1151.691191259	1735
2	14660	1151.86448888796	1736
2	14666	1152.422684842761	1737
2	14669	1152.86027430067	1738
2	14672	1153.297863758579	1739
2	14677	1153.735453216488	1740
2	14683	1154.173042674397	1741
2	14686	1154.610632132306	1742
2	14692	1155.048221590215	1743
2	14704	1156.11308045615	1744
2	14707	1156.360989963942	1745
2	14723	1157.673758337669	1746
2	14729	1158.111347795578	1747
2	14737	1159.180290133639	1748
2	14741	1159.424116169305	1749
2	14747	1160.299295085123	1750
2	14749	1160.370721736645	1751
2	14753	1160.5349696533	1752
2	14756	1160.736884543032	1753
2	14759	1161.174474000941	1754
2	14764	1161.61206345885	1755
2	14770	1161.863310530464	1756
2	14773	1162.049652916759	1757
2	14776	1162.487242374668	1758
2	14779	1162.924831832577	1759
2	14782	1163.362421290486	1760
2	14802	1164.95685885045	1761
2	14825	1166.425547495849	1762
2	14837	1167.738315869576	1763
2	14839	1167.809742521098	1764
2	14843	1168.175905327485	1765
2	14846	1168.613494785394	1766
2	14851	1169.051084243303	1767
2	14854	1169.3787480476	1768
2	14863	1169.926263159121	1769
2	14866	1170.36385261703	1770
2	14869	1170.801442074939	1771
2	14875	1171.239031532848	1772
2	14881	1171.862132172968	1773
2	14884	1172.114210448666	1774
2	14887	1172.551799906575	1775
2	14893	1172.989389364484	1776
2	14895	1173.240968371236	1777
2	14923	1175.177336654029	1778
2	14926	1175.614926111938	1779
2	14932	1176.490105027756	1780
2	14935	1176.927694485665	1781
2	14937	1176.999121137187	1782
2	14956	1178.2225264419	1783
2	14967	1179.196775670861	1784
2	14978	1180.428410148937	1785
2	14990	1181.303589064755	1786
2	14993	1181.741178522664	1787
2	14996	1181.860953815472	1788
2	15002	1182.178767980573	1789
2	15027	1184.366715270118	1790
2	15030	1184.804304728027	1791
2	15032	1184.877980103771	1792
2	15041	1185.241894185936	1793
2	15044	1185.679483643845	1794
2	15056	1187.0663048362	1795
2	15059	1187.429841475481	1796
2	15065	1187.86743093339	1797
2	15068	1188.305020391299	1798
2	15073	1188.756984014616	1799
2	15081	1189.180199307117	1800
2	15087	1189.617788765026	1801
2	15093	1190.055378222935	1802
2	15099	1190.930557138753	1803
2	15130	1192.680914970389	1804
2	15145	1194.431272802025	1805
2	15151	1195.306451717843	1806
2	15154	1195.744041175752	1807
2	15157	1195.9100832305	1808
2	15162	1196.181630633661	1809
2	15176	1197.494399007388	1810
2	15194	1198.807167381115	1811
2	15197	1199.244756839024	1812
2	15203	1200.119935754842	1813
2	15211	1200.557525212751	1814
2	15220	1200.99511467066	1815
2	15231	1201.85859710048	1816
2	15234	1201.870293586478	1817
2	15236	1202.225376851641	1818
2	15243	1202.745472502296	1819
2	15246	1203.183061960205	1820
2	15252	1204.058240876023	1821
2	15258	1204.495830333932	1822
2	15264	1204.933419791841	1823
2	15269	1205.37100924975	1824
2	15275	1205.808598707659	1825
2	15284	1206.683777623477	1826
2	15287	1207.121367081386	1827
2	15290	1207.558956539295	1828
2	15293	1207.996545997204	1829
2	15299	1208.434135455113	1830
2	15302	1208.871724913022	1831
2	15311	1209.309314370931	1832
2	15328	1211.059672202567	1833
2	15334	1211.857418742984	1834
2	15352	1212.372440576294	1835
2	15354	1212.520452809334	1836
2	15358	1212.810030034203	1837
2	15360	1213.123840893134	1838
2	15364	1213.247619492112	1839
2	15367	1213.5976400191	1840
2	15376	1214.12279840793	1841
2	15382	1214.997977323748	1842
2	15402	1217.185924613293	1843
2	15417	1218.49869298702	1844
2	15446	1220.686640276565	1845
2	15460	1221.856240385488	1846
2	15472	1222.87458756611	1847
2	15484	1223.749766481928	1848
2	15493	1224.187355939837	1849
2	15499	1225.062534855655	1850
2	15502	1225.500124313564	1851
2	15522	1227.2504821452	1852
2	15524	1227.547023123066	1853
2	15527	1227.688071603109	1854
2	15533	1228.125661061018	1855
2	15546	1229.000839976836	1856
2	15555	1229.876018892654	1857
2	15564	1231.188787266381	1858
2	15567	1231.2851968077	1859
2	15569	1231.426027033911	1860
2	15572	1231.62637672429	1861
2	15578	1231.855062027992	1862
2	15580	1232.049627992361	1863
2	15584	1232.063966182199	1864
2	15596	1233.376734555926	1865
2	15599	1233.814324013835	1866
2	15602	1234.251913471744	1867
2	15608	1235.127092387562	1868
2	15622	1235.70708600485	1869
2	15625	1236.00227130338	1870
2	15630	1236.412936441491	1871
2	15634	1236.439860761289	1872
2	15656	1238.627808050834	1873
2	15659	1239.065397508743	1874
2	15674	1240.128975202	1875
2	15680	1240.815755340379	1876
2	15683	1241.253344798288	1877
2	15689	1241.690934256197	1878
2	15692	1241.853883670496	1879
2	15695	1242.128523714106	1880
2	15703	1243.063038766446	1881
2	15709	1243.441292087833	1882
2	15712	1243.878881545742	1883
2	15726	1244.75406046156	1884
2	15732	1245.629239377378	1885
2	15746	1246.504418293196	1886
2	15752	1246.942007751105	1887
2	15769	1248.358613437821	1888
2	15775	1248.9727535963	1889
2	15781	1249.567544498559	1890
2	15784	1250.005133956468	1891
2	15792	1250.880312872286	1892
2	15801	1251.317902330195	1893
2	15807	1251.852705313	1894
2	15813	1252.630670703922	1895
2	15816	1253.068260161831	1896
2	15835	1254.381028535558	1897
2	15837	1254.700050498981	1898
2	15854	1255.693796909285	1899
2	15863	1256.568975825103	1900
2	15866	1257.006565283012	1901
2	15869	1257.444154740921	1902
2	15872	1257.8165319906	1903
2	15884	1258.756923114648	1904
2	15893	1259.632102030466	1905
2	15899	1260.069691488375	1906
2	15914	1261.820049320011	1907
2	15916	1261.848324347984	1908
2	15920	1261.851526955504	1909
2	15941	1263.570407151647	1910
2	15946	1264.007996609556	1911
2	15961	1265.320764983283	1912
2	15964	1265.758354441192	1913
2	15966	1266.186511258934	1914
2	15970	1266.195943899101	1915
2	15979	1266.6603103849	1916
2	15985	1267.071122814919	1917
2	15994	1268.383891188646	1918
2	16003	1269.259070104464	1919
2	16006	1269.696659562373	1920
2	16021	1270.571838478191	1921
2	16024	1271.0094279361	1922
2	16027	1271.08219958205	1923
2	16030	1271.447017394009	1924
2	16035	1271.850348598008	1925
2	16048	1272.759785767736	1926
2	16054	1273.634964683554	1927
2	16063	1274.072554141463	1928
2	16075	1275.38532251519	1929
2	16084	1276.260501431008	1930
2	16087	1276.698090888917	1931
2	16093	1277.135680346826	1932
2	16098	1277.974073964051	1933
2	16101	1278.010859262644	1934
2	16113	1279.323627636371	1935
2	16116	1279.76121709428	1936
2	16121	1279.92597797635	1937
2	16124	1280.198806552189	1938
2	16145	1281.849170240512	1939
2	16168	1282.939532321301	1940
2	16171	1283.261932757552	1941
2	16174	1283.699522215461	1942
2	16180	1284.3478671735	1943
2	16183	1284.574701131279	1944
2	16191	1285.732081785741	1945
2	16194	1285.887469505006	1946
2	16203	1286.325058962915	1947
2	16206	1286.762648420824	1948
2	16209	1287.200237878733	1949
2	16215	1287.637827336642	1950
2	16223	1288.51300625246	1951
2	16226	1288.76975637065	1952
2	16229	1288.950595710369	1953
2	16232	1289.388185168278	1954
2	16249	1291.138542999914	1955
2	16252	1291.576132457823	1956
2	16255	1291.847991883016	1957
2	16264	1292.451311373641	1958
2	16267	1292.88890083155	1959
2	16273	1293.1916455678	1960
2	16276	1293.326490289459	1961
2	16285	1293.764079747368	1962
2	16287	1293.83550639889	1963
2	16297	1294.639258663186	1964
2	16300	1295.076848121095	1965
2	16303	1295.514437579004	1966
2	16309	1296.389616494822	1967
2	16323	1297.61353476495	1968
2	16326	1297.702384868549	1969
2	16328	1297.950543703221	1970
2	16353	1300.327921616003	1971
2	16355	1300.424747172061	1972
2	16365	1301.203100531821	1973
2	16374	1301.84681352552	1974
2	16383	1302.078279447639	1975
2	16386	1302.515868905548	1976
2	16389	1302.953458363457	1977
2	16398	1303.828637279275	1978
2	16407	1304.703816195093	1979
2	16412	1305.127101339966	1980
2	16415	1305.141405653002	1981
2	16421	1305.578995110911	1982
2	16424	1306.01658456882	1983
2	16427	1306.454174026729	1984
2	16458	1309.079710774183	1985
2	16464	1309.517300232092	1986
2	16467	1309.954889690001	1987
2	16470	1310.39247914791	1988
2	16473	1310.830068605819	1989
2	16476	1310.8792023564	1990
2	16479	1311.267658063728	1991
2	16491	1311.845635168024	1992
2	16503	1313.018015895364	1993
2	16512	1313.893194811182	1994
2	16520	1314.768373727	1995
2	16526	1315.205963184909	1996
2	16529	1315.30109155355	1997
2	16535	1315.643552642818	1998
2	16544	1316.518731558636	1999
2	16546	1316.764113072501	2000
2	16555	1317.393910474454	2001
2	16557	1317.520451204781	2002
2	16568	1318.706678848181	2003
2	16577	1319.581857763999	2004
2	16580	1319.7229807507	2005
2	16586	1320.019447221908	2006
2	16598	1320.894626137726	2007
2	16610	1321.844456810528	2008
2	16612	1321.920643496854	2009
2	16616	1322.207394511453	2010
2	16622	1323.082573427271	2011
2	16628	1323.957752343089	2012
2	16631	1324.14486994785	2013
2	16637	1324.395341800998	2014
2	16639	1324.522120894191	2015
2	16645	1324.832931258907	2016
2	16651	1325.708110174725	2017
2	16654	1326.145699632634	2018
2	16663	1327.020878548452	2019
2	16672	1327.89605746427	2020
2	16677	1328.333646922179	2021
2	16683	1328.566759145	2022
2	16695	1329.208825837997	2023
2	16698	1329.646415295906	2024
2	16704	1330.521594211724	2025
2	16706	1330.641752110595	2026
2	16713	1331.396773127542	2027
2	16718	1331.834362585451	2028
2	16721	1331.843278453032	2029
2	16724	1332.27195204336	2030
[...]
10	19375	1566.382312024675	679
10	19380	1566.819901482584	680
10	19397	1568.132669856311	681
10	19438	1571.633385519583	682
10	19441	1571.77066498825	683
10	19467	1574.258922267037	684
10	19479	1575.571690640764	685
10	19495	1576.657375099116	686
10	19502	1576.884459014491	687
10	19508	1577.759637930309	688
10	19555	1581.69794305149	689
10	19570	1583.448300883126	690
10	19616	1587.824195462216	691
10	19619	1588.261784920125	692
10	19621	1588.294386831651	693
10	19725	1596.575984620396	694
10	19739	1598.30200017115	695
10	19824	1605.327773778576	696
10	19849	1607.689406385876	697
10	19856	1607.95331052603	698
10	19943	1615.829920768392	699
10	19946	1615.98955695975	700
10	19955	1616.70509968421	701
10	19974	1619.313603847811	702
10	19983	1619.768225889573	703
10	20102	1629.83278342148	704
10	20148	1634.842433761791	705
10	20163	1635.959035832206	706
10	20213	1639.897340953387	707
10	20234	1642.52089214265	708
10	20237	1642.522877700841	709
10	20251	1643.398056616659	710
10	20256	1643.835646074568	711
10	20270	1645.148414448295	712
10	20358	1653.025024690657	713
10	20364	1653.900203606475	714
10	20379	1655.212971980202	715
10	20408	1658.116457226861	716
10	20482	1663.964761138382	717
10	20494	1664.8399400542	718
10	20548	1670.091013549108	719
10	20570	1671.841371380744	720
10	20602	1674.904497586107	721
10	20629	1677.530034333561	722
10	20647	1679.280392165197	723
10	20653	1679.717981623106	724
10	20658	1680.529434614814	725
10	20684	1682.317894917	726
10	20687	1682.34351837056	727
10	20693	1683.218697286378	728
10	20711	1684.093876202196	729
10	20720	1684.969055118014	730
10	20722	1685.269484602776	731
10	20761	1689.148488513621	732
10	20774	1690.220128612922	733
10	20895	1700.785500246156	734
10	20911	1702.035043976465	735
10	20917	1702.910222892283	736
10	20951	1705.535759639737	737
10	20998	1709.911654218827	738
10	21007	1711.224422592554	739
10	21013	1711.662012050463	740
10	21082	1717.6930084942	741
10	21087	1717.788264461189	742
10	21122	1720.851390666552	743
10	21125	1721.288980124461	744
10	21128	1721.72656958237	745
10	21176	1726.10246416146	746
10	21182	1726.540053619369	747
10	21207	1728.728000908914	748
10	21210	1729.165590366823	749
10	21318	1738.792558440821	750
10	21344	1740.980505730366	751
10	21376	1743.60604247782	752
10	21385	1744.043631935729	753
10	21428	1747.98193705691	754
10	21439	1749.226330289241	755
10	21504	1754.670115126864	756
10	21531	1757.49001126855	757
10	21540	1758.046494588817	758
10	21548	1758.970558908831	759
10	21598	1762.901354125181	760
10	21623	1765.48551537327	761
10	21635	1766.33378966285	762
10	21638	1766.360694289088	763
10	21640	1766.728566730521	764
10	21755	1777.300430736813	765
10	21785	1779.488378026358	766
10	21800	1780.801146400085	767
10	21809	1781.676325315903	768
10	21832	1783.864272605448	769
10	21838	1784.301862063357	770
10	21864	1786.489809352902	771
10	21870	1786.927398810811	772
10	21884	1788.4432356486	773
10	21901	1790.002590195591	774
10	21920	1791.74088284781	775
10	21926	1792.178472305719	776
10	21934	1792.616061763628	777
10	21940	1793.053651221537	778
10	22001	1798.742314174354	779
10	22007	1799.617493090172	780
11	0	0	0
11	159	2	0
11	231	9.270462178857	1
11	238	9.539795117736	0
11	241	9.708051636766	1
11	254	10.314199700271	0
11	275	11.895998926311	1
11	285	12.33358838422	0
11	299	12.931253385748	1
11	305	13.149466089702	0
11	317	13.692351376007	1
11	323	14.083946215856	0
11	380	16.810257296593	1
11	397	17.584661879128	0
11	404	18.022251337037	1
11	437	19.604050563077	0
11	455	20.419928268559	1
11	465	20.907473911392	0
11	477	21.354408394713	1
11	505	22.398145916127	0
11	559	24.855124057985	1
11	606	26.874512741934	0
11	631	28.177936090249	1
11	675	29.568135848267	0
11	676	29.668608094984	1
11	685	29.834118167692	0
11	712	31.149935074307	1
11	724	31.756083137812	0
11	731	32.025113990125	1
11	752	32.95322438005	0
11	773	34.144974920791	1
11	793	35.088240195488	0
11	837	36.838598027124	1
11	844	37.00715663272	0
11	845	37.104580346549	1
11	855	37.3751135772	0
11	869	38.151366400851	1
11	875	38.319925006447	0
11	885	39.026545316669	1
11	905	40.223686558907	0
11	907	40.302493465617	1
11	916	40.776903148305	0
11	947	42.358702374345	1
11	949	42.527260979941	0
11	978	44.277618811577	1
11	985	44.446177417173	0
11	987	44.645575756057	1
11	996	44.715208269486	0
11	1006	45.152797727395	1
11	1014	45.590387185304	0
11	1020	46.027976643213	1
11	1026	46.196535248809	0
11	1038	47.494148737764	1
11	1050	47.946893080445	0
11	1051	48.047365327162	1
11	1054	48.060501287307	0
11	1073	49.091102848576	1
11	1085	49.523615516683	0
11	1091	49.797723158798	1
11	1129	51.71663959603	0
11	1140	51.985670448343	1
11	1160	52.860849364161	0
11	1169	53.466997427666	1
11	1184	54.073145491171	0
11	1206	55.217355259302	1
11	1211	55.330963466164	0
11	1219	55.818509108997	1
11	1227	56.261092780716	0
11	1240	56.79407769554	1
11	1247	57.08556478912	0
11	1279	58.987101774887	1
11	1305	60.131311543018	0
11	1330	61.343607670028	1
11	1334	61.781197127937	0
11	1356	62.601425645021	1
11	1360	62.824934649351	0
11	1373	63.531554959573	1
11	1380	63.576516930687	0
11	1395	64.356026967977	1
11	1437	67.401773721875	0
11	1438	67.455520841532	1
11	1446	67.74279154908	0
11	1473	69.051659306794	1
11	1479	69.388776517986	0
11	1488	70.095396828208	1
11	1493	70.263955433804	0
11	1504	70.846979109544	1
11	1515	71.334524752377	0
11	1517	71.408165201935	1
11	1560	73.764671097076	0
11	1571	74.672235900732	1
11	1575	75.013253727937	0
11	1580	75.213528663222	1
11	1597	75.952618386621	0
11	1604	76.659238696843	1
11	1612	77.096828154752	0
11	1626	77.534417612661	1
11	1633	77.97200707057	0
11	1640	78.604986931234	1
11	1642	78.67499671797	0
11	1679	81.035133275933	1
11	1698	81.910312191751	0
11	1707	82.283715906794	1
11	1720	83.223080565478	0
11	1747	84.367290333609	1
11	1748	84.535848939205	0
11	1767	85.242469249427	1
11	1771	85.579586460619	0
11	1773	85.945458896827	1
11	1781	86.017175918528	0
11	1788	86.72379622875	1
11	1791	86.850540395757	0
11	1810	88.036564602477	1
11	1813	88.205123208073	0
11	1831	89.180774370608	1
11	1834	89.349332976204	0
11	1853	90.493542744335	1
11	1856	90.729544306602	0
11	1875	91.806311118062	1
11	1886	92.354151781629	0
11	1894	92.850048639476	1
11	1898	93.018607245072	0
11	1902	93.287638097385	1
11	1913	94.121002574614	0
11	1921	94.608548217447	1
11	1929	95.037995929021	0
11	1940	95.47558538693	1
11	1941	95.627177868572	0
11	1947	95.913174844839	1
11	1960	96.619795155061	0
11	1971	97.708246121857	1
11	1979	98.000006485459	0
11	1983	98.487552128292	1
11	1989	98.707270197889	0
11	2010	99.624613960486	1
11	2015	100.020038571616	0
11	2017	100.289069423929	1
11	2038	101.391464753471	0
11	2054	102.308458107878	1
11	2055	102.366556039137	0
11	2063	102.897640047429	1
11	2064	102.914606171383	0
11	2080	103.890257333918	1
11	2085	104.22737454511	0
11	2102	105.270468664316	1
11	2114	105.977732376746	0
11	2120	106.245559949982	1
11	2134	107.02146989816	0
11	2135	107.290500750473	1
11	2150	108.1253407316	0
11	2155	108.661926932328	1
11	2172	109.637018217994	0
11	2182	110.124563860827	1
11	2183	110.18506835024	0
11	2207	111.497836723967	1
11	2208	111.666395329563	0
11	2217	112.103984787472	1
11	2235	113.248194555603	0
11	2246	114.291932077017	1
11	2257	114.898080140522	0
11	2266	115.395802910457	1
11	2270	115.604700450744	0
11	2282	116.907480396851	1
11	2297	117.455530529097	0
11	2307	117.882571682517	1
11	2310	117.961206345885	0
11	2327	118.93685750842	1
11	2338	119.711564177521	0
11	2343	120.51865673446	1
11	2363	121.461922009157	0
11	2374	122.168542319379	1
11	2390	122.875162629601	0
11	2397	123.481310693106	1
11	2400	123.649869298702	0
11	2411	124.725992707954	1
11	2425	125.231668524742	0
11	2432	125.640579504207	1
11	2452	126.982026356378	0
11	2474	128.732384188014	1
11	2485	129.338532251519	0
11	2496	130.145624808458	1
11	2504	130.23478671735	0
11	2512	130.920331477559	1
11	2517	131.088890083155	0
11	2522	131.795510393377	1
11	2541	132.401658456882	0
11	2542	132.502130703599	1
11	2546	132.670689309195	0
11	2571	134.252488535235	1
11	2601	136.339963578063	0
11	2603	136.608994430376	1
11	2617	137.505248896207	0
11	2631	138.359352262012	1
11	2649	139.07856511165	0
11	2653	139.672120635739	1
11	2660	139.941151488052	0
11	2715	143.61042575692	1
11	2718	143.778984362516	0
11	2729	144.775711075064	1
11	2759	146.349027290507	0
11	2769	147.211613666909	1
11	2783	148.154878941606	0
11	2826	151.049446541373	1
11	2843	152.093184062787	0
11	2868	153.619489469364	1
11	2891	155.15631026815	0
11	2892	155.425341120463	1
11	2914	156.76612190025	0
11	2948	159.363646241644	1
11	2966	160.844973220967	0
11	2987	162.426772447007	1
11	2992	162.595331052603	0
11	3017	164.036584079107	1
11	3075	168.115435399824	0
11	3093	169.86579323146	1
11	3109	170.909530752874	0
11	3178	175.385897578681	1
11	3183	175.723014789873	0
11	3211	178.179992931731	1
11	3237	179.661319911054	0
11	3285	182.99347696873	1
11	3292	183.162035574326	0
11	3339	186.931782089911	1
11	3349	187.552535145484	0
11	3389	190.432497753183	1
11	3403	191.852978927451	0
11	3448	194.822997324341	1
11	3485	197.164898227414	0
11	3509	199.123441106308	1
11	3514	199.352845516959	0
11	3576	204.435360406271	1
11	3595	205.479097927685	0
11	3607	206.623307695816	1
11	3678	212.04293979632	0
11	3682	212.749560106542	1
11	3698	213.793297627956	0
11	3764	219.313401975177	1
11	3774	219.919550038682	0
11	3791	221.063759806813	1
11	3799	221.669907870318	0
11	3864	227.190012217539	1
11	3882	228.130841508654	0
11	3890	228.940370049175	1
11	3903	229.984107570589	0
11	3970	235.401303687511	1
11	3995	237.254569749446	0
11	4077	244.525031928303	1
11	4098	246.159033679281	0
11	4179	253.429495858138	1
11	4187	253.917041500971	0
11	4276	261.187503679828	1
11	4280	261.490548540037	0
11	4377	268.761010718894	1
11	4389	269.433057144351	0
11	4475	276.703519323208	1
11	4489	277.68135848267	0
11	4572	284.951820661527	1
11	4591	285.765706314454	0
11	4680	293.036168493311	1
11	4703	295.18493679903	0
11	4793	302.455398977887	1
11	4820	304.344092341956	0
11	4905	311.614554520813	1
11	4999	319.438668114214	0
11	5084	326.709130293071	1
11	5088	327.128967226387	0
11	5175	334.399429405244	1
11	5180	334.56798801084	0
11	5260	341.838450189697	1
11	5271	342.444598253202	0
11	5350	349.715060432059	1
11	5393	352.0715663272	0
11	5469	359.342028506057	1
11	5485	360.385766027471	0
11	5564	367.656228206328	1
11	5575	368.262376269833	0
11	5657	375.53283844869	1
11	5727	381.924170558856	0
11	5813	389.194632737713	1
11	5825	389.704259707374	0
11	5907	396.974721886231	1
11	5947	400.20640669719	0
11	6034	407.476868876047	1
11	6062	409.833374771188	0
11	6144	417.103836950045	1
11	6169	419.022753387277	0
11	6248	426.293215566134	1
11	6271	427.774542545457	0
11	6350	435.045004724314	1
11	6357	435.21356332991	0
11	6446	442.484025508767	1
11	6454	443.090173572272	0
11	6535	450.360635751129	1
11	6542	450.529194356725	0
11	6626	457.799656535582	1
11	6631	457.968215141178	0
11	6714	465.238677320035	1
11	6722	465.84482538354	0
11	6809	473.115287562397	1
11	6819	473.721435625902	0
11	6901	480.991897804759	1
11	6915	482.035635326173	0
11	7003	489.30609750503	1
11	7046	492.975371773898	0
11	7125	500.245833952755	1
11	7149	501.727160932078	0
11	7229	508.997623110935	1
11	7234	509.166181716531	0
11	7321	516.436643895388	1
11	7338	517.480381416802	0
11	7419	524.750843595659	1
11	7447	526.669760032891	0
11	7529	533.940222211748	1
11	7574	537.609496480616	0
11	7649	544.879958659473	1
11	7683	547.674054012523	0
11	7767	554.94451619138	1
11	7804	557.73861154443	0
11	7889	565.009073723287	1
11	7897	565.177632328883	0
11	7982	572.44809450774	1
11	7993	573.491832029154	0
11	8078	580.762294208011	1
11	8136	585.306747392697	0
11	8219	592.577209571554	1
11	8227	593.183357635059	0
11	8304	600.453819813916	1
11	8321	601.49755733533	0
11	8397	608.768019514187	1
11	8432	611.124525409328	0
11	8510	618.394987588185	1
11	8526	619.438725109599	0
11	8614	626.709187288456	1
11	8628	627.75292480987	0
11	8707	635.023386988727	1
11	8712	635.191945594323	0
11	8793	642.46240777318	1
11	8822	645.25650312623	0
11	8907	652.526965305087	1
11	8920	653.570702826501	0
11	9002	660.841165005358	1
11	9010	661.009723610954	0
11	9084	668.280185789811	1
11	9099	668.899447249981	0
11	9176	676.169909428838	1
11	9195	677.638123011496	0
11	9280	684.908585190353	1
11	9314	688.140270001312	0
11	9392	695.410732180169	1
11	9438	699.080006449037	0
11	9526	706.350468627894	1
11	9531	706.51902723349	0
11	9608	713.789489412347	1
11	9656	717.458763681215	0
11	9736	724.729225860072	1
11	9752	726.210552839395	0
11	9835	733.481015018252	1
11	9843	733.649573623848	0
11	9925	740.920035802705	1
11	9948	742.838952239937	0
11	10025	750.109414418794	1
11	10030	750.27797302439	0
11	10108	757.548435203247	1
11	10147	760.342530556297	0
11	10233	767.612992735154	1
11	10255	769.824561643356	0
11	10345	777.095023822213	1
11	10359	777.846108872657	0
11	10432	785.116571051514	1
11	10468	787.910666404564	0
11	10551	795.181128583421	1
11	10587	797.940055487	0
11	10669	805.210517665857	1
11	10723	809.352549842105	0
11	10806	816.623012020962	1
11	10817	817.666749542376	0
11	10903	824.937211721233	1
11	10908	825.105770326829	0
11	10988	832.376232505686	1
11	10993	832.544791111282	0
11	11071	839.815253290139	1
11	11088	840.858990811553	0
11	11170	848.12945299041	1
11	11218	852.236316717187	0
11	11297	859.506778896044	1
11	11305	859.67533750164	0
11	11381	866.945799680497	1
11	11395	867.989537201911	0
11	11473	875.259999380768	1
11	11526	879.366863107545	0
11	11612	886.637325286402	1
11	11617	886.805883891998	0
11	11692	894.076346070855	1
11	11734	897.831690701241	0
11	11819	905.102152880098	1
11	11837	906.497409497903	0
11	11921	913.76787167676	1
11	11932	914.811609198174	0
11	12016	922.082071377031	1
11	12036	924.000987814263	0
11	12119	931.27144999312	1
11	12124	931.440008598716	0
11	12204	938.710470777573	1
11	12217	939.316618841078	0
11	12297	946.587081019935	1
11	12316	948.258741542226	0
11	12405	955.529203721083	1
11	12471	961.196091736528	0
11	12547	968.466553915385	1
11	12570	970.385470352617	0
11	12647	977.655932531474	1
11	12658	978.262080594979	0
11	12744	985.532542773836	1
11	12749	985.701101379432	0
11	12827	992.971563558289	1
11	12877	996.92506935875	0
11	12960	1004.195531537607	1
11	12971	1004.955037527428	0
11	13054	1012.225499706285	1
11	13078	1014.201808026591	0
11	13158	1021.472270205448	1
11	13187	1023.491975828694	0
11	13261	1030.762438007551	1
11	13273	1031.287578902391	0
11	13354	1038.558041081248	1
11	13370	1039.524604702239	0
11	13446	1046.795066881096	1
11	13454	1046.963625486692	0
11	13538	1054.234087665549	1
11	13546	1054.4096289217	0
11	13620	1061.680091100557	1
11	13652	1063.592024887234	0
11	13725	1070.862487066091	1
11	13742	1071.906224587505	0
11	13821	1079.176686766362	1
11	13826	1079.345245371958	0
11	13907	1086.615707550815	1
11	13939	1089.409802903865	0
11	14022	1096.680265082722	1
11	14027	1096.848823688318	0
11	14109	1104.119285867175	1
11	14129	1106.475791762316	0
11	14211	1113.746253941173	1
11	14242	1116.3160776818	0
11	14330	1123.586539860657	1
11	14362	1126.60490682613	0
11	14443	1133.875369004987	1
11	14448	1134.0036344704	0
11	14530	1141.274096649257	1
11	14541	1141.920537852945	0
11	14622	1149.191000031802	1
11	14632	1149.966944906166	0
11	14716	1157.237407085023	1
11	14732	1158.548937253487	0
11	14814	1165.819399432344	1
11	14828	1166.863136953758	0
11	14910	1174.133599132615	1
11	14920	1174.73974719612	0
11	14997	1182.010209374977	1
11	15007	1182.616357438482	0
11	15088	1189.886819617339	1
11	15105	1191.368146596662	0
11	15189	1198.638608775519	1
11	15261	1204.7538616248	0
11	15338	1212.024323803657	1
11	15379	1214.560387865839	0
11	15455	1221.830850044696	1
11	15466	1222.436998108201	0
11	15550	1229.707460287058	1
11	15558	1230.313608350563	0
11	15645	1237.58407052942	1
11	15671	1239.940576424561	0
11	15756	1247.211038603418	1
11	15767	1248.254776124832	0
11	15849	1255.525238303689	1
11	15875	1257.88174419883	0
11	15956	1265.152206377687	1
11	15976	1266.63353335701	0
11	16058	1273.903995535867	1
11	16078	1275.5040887792	0
11	16161	1282.774550958057	1
11	16186	1285.012290589188	0
11	16259	1292.282752768045	1
11	16306	1295.952027036913	0
11	16390	1303.22248921577	1
11	16401	1304.266226737184	0
11	16480	1311.536688916041	1
11	16494	1312.142836979546	0
11	16572	1319.413299158403	1
11	16591	1320.643116983346	0
11	16673	1327.913579162203	1
11	16701	1330.084004753815	0
11	16780	1337.354466932672	1
11	16791	1337.960614996177	0
11	16875	1345.231077175034	1
11	16883	1345.837225238539	0
11	16964	1353.107687417396	1
11	16975	1353.713835480901	0
11	17047	1360.984297659758	1
11	17072	1362.465624639081	0
11	17152	1369.736086817938	1
11	17166	1370.779824339352	0
11	17247	1378.050286518209	1
11	17252	1378.218845123805	0
11	17333	1385.489307302662	1
11	17385	1390.033760487348	0
11	17467	1397.304222666205	1
11	17480	1398.223195200246	0
11	17563	1405.493657379103	1
11	17569	1405.981203021936	0
11	17650	1413.251665200793	1
11	17654	1413.663591214434	0
11	17729	1420.934053393291	1
11	17763	1423.290559288432	0
11	17843	1430.561021467289	1
11	17898	1435.105474651975	0
11	17970	1442.375936830832	1
11	17975	1442.544495436428	0
11	18057	1449.814957615285	1
11	18065	1450.42110567879	0
11	18152	1457.691567857647	1
11	18200	1461.798431584424	0
11	18277	1469.068893763281	1
11	18285	1469.675041826786	0
11	18369	1476.945504005643	1
11	18374	1477.114062611239	0
11	18455	1484.384524790096	1
11	18466	1485.42826231151	0
11	18556	1492.698724490367	1
11	18561	1492.867283095963	0
11	18637	1500.13774527482	1
11	18651	1501.02043783385	0
11	18726	1508.290900012707	1
11	18761	1511.68362978605	0
11	18846	1518.954091964907	1
11	18854	1519.122650570503	0
11	18928	1526.39311274936	1
11	18950	1527.55177301675	0
11	19025	1534.822235195607	1
11	19045	1536.188639428954	0
11	19123	1543.459101607811	1
11	19131	1544.065249671316	0
11	19209	1551.335711850173	1
11	19223	1552.379449371587	0
11	19302	1559.649911550444	1
11	19336	1562.006417445585	0
11	19409	1569.276879624442	1
11	19435	1571.195796061674	0
11	19512	1578.466258240531	1
11	19549	1581.260353593581	0
11	19629	1588.530815772438	1
11	19694	1593.950447872942	0
11	19769	1601.220910051799	1
11	19805	1603.810402475031	0
11	19883	1611.080864653888	1
11	19929	1615.392331310483	0
11	20014	1622.66279348934	1
11	20096	1629.395193963571	0
11	20173	1636.665656142428	1
11	20196	1638.58457257966	0
11	20274	1645.855034758517	1
11	20340	1651.36467053695	0
11	20416	1658.635132715807	1
11	20436	1660.20844893125	0
11	20519	1667.478911110107	1
11	20530	1668.340655717472	0
11	20609	1675.611117896329	1
11	20617	1676.217265959834	0
11	20697	1683.487728138691	1
11	20702	1683.656286744287	0
11	20783	1690.926748923144	1
11	20873	1698.534328313193	0
11	20952	1705.80479049205	1
11	20960	1706.410938555555	0
11	21042	1713.681400734412	1
11	21062	1715.600317171644	0
11	21141	1722.870779350501	1
11	21155	1723.914516871915	0
11	21234	1731.184979050772	1
11	21272	1734.416663861731	0
11	21348	1741.687126040588	1
11	21368	1743.168453019911	0
11	21449	1750.438915198768	1
11	21499	1754.108189467636	0
11	21571	1761.378651646493	1
11	21596	1762.859978625816	0
11	21672	1770.130440804673	1
11	21682	1770.736588868178	0
11	21762	1778.007051047035	1
11	21767	1778.175609652631	0
11	21847	1785.446071831488	1
11	21858	1786.052219894993	0
11	21941	1793.32268207385	1
11	21992	1797.867135258536	0
