version 2
run conf3-7-20161125-01:35:35-1260
attr configname conf3
attr datetime 20161125-01:35:35
attr experiment conf3
attr i 5
attr inifile omnetpp.ini
attr iterationvars "$i=5, $p=7, $q=6"
attr iterationvars2 "$i=5, $p=7, $q=6, $repetition=0"
attr measurement "$i=5, $p=7, $q=6"
attr network Omrezje
attr p 7
attr processid 1260
attr q 6
attr repetition 0
attr replication #0
attr resultdir results
attr runnumber 7
attr seedset 7
param Omrezje.router*.processingTime "truncnormal(${p = 5..7 step 2}, ${p} * 0.5)"
param Omrezje.router*.queueCapacity "truncnormal(${q = 1..6 step 5}, 0)"
param Omrezje.source*.interArrivalTime "truncnormal(${i = 3..5 step 2}, ${i} * 0.5)"

vector 0  Omrezje.router  droppedPackage:vector  ETV
attr interpolationmode  none
attr title  "drop package, vector"
vector 1  Omrezje.router  queueLength:vector  ETV
attr interpolationmode  none
attr title  "queue length, vector"
vector 2  Omrezje.router1  droppedPackage:vector  ETV
attr interpolationmode  none
attr title  "drop package, vector"
vector 3  Omrezje.router1  queueLength:vector  ETV
attr interpolationmode  none
attr title  "queue length, vector"
vector 4  Omrezje.router2  droppedPackage:vector  ETV
attr interpolationmode  none
attr title  "drop package, vector"
vector 5  Omrezje.router2  queueLength:vector  ETV
attr interpolationmode  none
attr title  "queue length, vector"
vector 6  Omrezje.router3  droppedPackage:vector  ETV
attr interpolationmode  none
attr title  "drop package, vector"
vector 7  Omrezje.router3  queueLength:vector  ETV
attr interpolationmode  none
attr title  "queue length, vector"
vector 8  Omrezje.router4  droppedPackage:vector  ETV
attr interpolationmode  none
attr title  "drop package, vector"
vector 9  Omrezje.router4  queueLength:vector  ETV
attr interpolationmode  none
attr title  "queue length, vector"
vector 10  Omrezje.router5  droppedPackage:vector  ETV
attr interpolationmode  none
attr title  "drop package, vector"
vector 11  Omrezje.router5  queueLength:vector  ETV
attr interpolationmode  none
attr title  "queue length, vector"
0	0	0	0
0	346	21.418979051622	1
0	355	22.03620426415	2
0	364	22.337468720514	3
0	374	22.942589531281	4
0	461	26.936561968951	5
0	2825	156.992480676232	6
0	2943	166.935037688964	7
0	3875	250.95854745504	8
0	4078	269.630438514168	9
0	4158	278.142588370564	10
0	4197	281.241964122549	11
0	4209	282.07836588692	12
0	4245	285.794827470094	13
0	4271	288.347918403407	14
0	4294	290.427885856189	15
0	4310	291.414311416484	16
0	4370	297.63827510286	17
0	4374	298.693159644387	18
0	4385	299.460451213138	19
0	4409	300.993459036546	20
0	4442	304.104171177842	21
0	4453	304.639794417905	22
0	4498	308.681507104779	23
0	4500	309.665781245981	24
0	4508	310.086202475612	25
0	4532	312.157068751373	26
0	4544	313.1981843188	27
0	4658	323.877689807697	28
0	4671	325.646111691552	29
0	4690	327.430666948126	30
0	4707	328.75809353474	31
0	4739	331.568186739464	32
0	4744	331.870075377928	33
0	4777	336.145522666401	34
0	4799	338.094039064304	35
0	4804	338.543199757857	36
0	4833	341.417590520075	37
0	4837	341.642575509842	38
0	4870	345.195552650271	39
0	4893	347.429984593868	40
0	4895	347.460695925557	41
0	4925	350.541966437056	42
0	4949	352.755108319573	43
0	4982	355.854484071558	44
0	4997	356.765930123432	45
0	5002	357.214203181791	46
0	5064	363.609538228023	47
0	5201	377.341546008834	48
0	5214	379.252314366914	49
0	5232	381.178925443005	50
0	5235	381.661784868936	51
0	5241	381.918881935771	52
0	5248	382.805291507343	53
0	5266	384.731902583434	54
0	5271	384.884482706741	55
0	5301	387.831278335419	56
0	5390	397.221694084876	57
0	5405	398.94381114515	58
0	5445	403.445657771252	59
0	5514	409.669621457628	60
0	5607	419.005566987192	61
0	5676	427.367628268582	62
0	5691	428.341512516756	63
0	5739	432.546971473349	64
0	5771	436.099948613778	65
0	5973	457.417811456352	66
0	6025	462.443798284428	67
0	6030	462.897399672872	68
0	6045	464.52376573721	69
0	6056	465.685294635012	70
0	6069	466.450376813301	71
0	6178	478.042936401448	72
0	6228	482.288651439355	73
0	6273	487.469167537328	74
0	6289	489.748369111466	75
0	6410	501.980148217591	76
0	6442	505.50695196307	77
0	6444	505.53312535802	78
0	6474	508.632501110005	79
0	6487	510.084287890007	80
0	6542	515.47700412602	81
0	6544	515.738455390863	82
0	6582	519.291432531292	83
0	6639	524.924377124503	84
0	6727	534.148895185148	85
0	6737	535.58330854579	86
0	6750	537.260877028336	87
0	6756	537.509919621881	88
0	6843	546.702975305503	89
0	6990	562.15673177384	90
0	7019	565.012319013251	91
0	7033	565.933736745313	92
0	7047	567.560102809651	93
0	7069	569.589654940188	94
0	7116	574.666057090509	95
0	7148	577.71664098978	96
0	7200	583.321662720999	97
0	7245	587.251599587887	98
0	7249	587.283441673806	99
0	7261	588.877965652225	100
0	7335	597.05367050181	101
0	7361	599.500513892096	102
0	7363	599.536897073512	103
0	7963	661.136373478928	104
0	7967	661.410518148452	105
0	8001	665.311499723678	106
0	8007	665.713709405865	107
0	8038	668.970073817754	108
0	8071	672.069449569739	109
0	8085	674.188078128608	110
0	8090	674.868381259739	111
0	8158	681.255371303379	112
0	8173	682.728380991026	113
0	8191	684.808348443808	114
0	8209	686.63600550136	115
0	8211	686.734959519899	116
0	8221	688.361325584237	117
0	8228	688.60038904055	118
0	8280	693.177724967487	119
0	8300	695.971951030924	120
0	8381	704.325528748614	121
0	8403	706.126211286382	122
0	8410	706.909732748298	123
0	8424	708.419878403676	124
0	8432	709.679188426811	125
0	8589	725.219076456046	126
0	8593	725.817708064618	127
0	8663	733.586050517316	128
0	8715	739.539696835556	129
0	8717	739.703469310549	130
0	8765	743.874782966739	131
0	8793	746.809423591407	132
0	8795	747.427760107168	133
0	8941	761.837763871542	134
0	8973	765.192645809313	135
0	9138	782.339194995697	136
0	9147	783.107442640188	137
0	9160	784.724443506227	138
0	9176	786.219424483376	139
0	9220	790.063485792316	140
0	9246	792.998126416984	141
0	9267	795.55537001294	142
0	9313	800.104080697842	143
0	9388	807.828371494461	144
0	9421	811.11527922888	145
0	9440	813.766538924175	146
0	9452	814.227261072068	147
0	9518	821.343130921723	148
0	9522	821.421943540416	149
0	9531	822.040280056177	150
0	9837	854.683025033512	151
0	9918	862.539154264156	152
0	9931	864.676005741325	153
0	9964	868.228982881754	154
0	10067	880.848497971904	155
0	10072	881.273104592326	156
0	10140	888.91482530858	157
0	10150	889.64216661706	158
0	10178	892.026807151768	159
0	10214	896.034463489425	160
0	10245	899.587440629854	161
0	10278	903.735177606589	162
0	10284	904.47473452452	163
0	10339	910.698698210896	164
0	10409	918.902688385762	165
0	10501	929.370589270024	166
0	10671	948.163210154464	167
0	10697	951.15446217234	168
0	10724	954.085872802896	169
0	10747	956.435074876718	170
0	10757	957.916717410698	171
0	10785	960.490407701904	172
0	10820	963.602389545092	173
0	10845	966.71437138828	174
0	10883	970.646983438434	175
0	11099	995.281896145329	176
0	11347	1023.392190209486	177
0	11391	1028.95400825204	178
0	11456	1035.94477546057	179
0	11514	1041.706526247014	180
0	11579	1050.209927268573	181
0	11590	1050.737881154356	182
0	11628	1055.451789973038	183
0	11704	1063.185808527108	184
0	11762	1070.130343370446	185
0	11954	1091.405950611006	186
0	12111	1109.213091915165	187
0	12159	1114.292630245691	188
0	12367	1137.87337276362	189
0	12443	1146.33398173425	190
0	12452	1147.209318293184	191
0	12493	1151.848817600313	192
0	12507	1153.43328197956	193
0	12531	1155.488653588124	194
0	12539	1156.545263822748	195
0	12563	1159.657245665936	196
0	12721	1178.329136725064	197
0	12832	1190.931566145032	198
0	12937	1203.224991470568	199
0	13053	1215.802406128035	200
0	13207	1233.56729183018	201
0	13210	1234.344809902448	202
0	13248	1237.88070027299	203
0	13423	1258.438131813183	204
0	13428	1259.240664647952	205
0	13453	1261.991108953612	206
0	13472	1264.994635758658	207
0	13543	1272.650040374899	208
0	13560	1274.800573863892	209
0	13565	1275.653567179945	210
0	13692	1290.414926077044	211
0	13746	1297.386067323171	212
0	13759	1299.289471378888	213
0	13785	1301.073857498331	214
0	13827	1306.540739177045	215
0	13829	1307.630361443806	216
0	13904	1315.695411030919	217
0	13965	1322.391720340905	218
0	14345	1366.046106227226	219
0	14384	1371.27201100272	220
0	14386	1371.583949971528	221
0	14535	1389.348835673673	222
0	14545	1389.943902061848	223
0	14573	1393.510121788848	224
0	14838	1425.428057413346	225
0	14841	1425.551473277407	226
0	14846	1426.08506570993	227
0	15121	1457.592824765966	228
0	15208	1468.063783098494	229
0	15228	1471.06730990354	230
0	15274	1475.902168473714	231
0	15301	1478.722714519781	232
0	15358	1485.828668800639	233
0	15368	1486.415339200676	234
0	15387	1489.381645941068	235
0	15390	1489.527321043864	236
0	15504	1503.593554502784	237
0	15779	1535.570348766645	238
0	15864	1545.679829852549	239
0	16551	1627.398304082416	240
0	16564	1629.566503987324	241
0	16594	1632.678485830512	242
0	16616	1635.7904676737	243
0	16635	1638.606685839086	244
0	16638	1638.902449516888	245
0	16658	1640.686261843446	246
0	16665	1641.610212644132	247
0	16695	1645.263597770383	248
0	16700	1645.712640119944	249
0	16793	1657.574340576016	250
0	16847	1663.798304262392	251
0	16868	1667.030502962518	252
0	16943	1676.246231635144	253
0	16976	1679.358213478332	254
0	17031	1686.459621112816	255
0	17052	1688.694159007896	256
0	17077	1691.901342945521	257
0	17361	1726.037941126152	258
0	17460	1738.090045771098	259
0	17463	1738.197297909418	260
0	17467	1738.485868498904	261
0	17538	1747.821814028468	262
0	17545	1748.199526857002	263
0	17550	1748.748977192385	264
0	17572	1751.752503997431	265
0	17707	1767.45781967812	266
0	17729	1770.066840034959	267
0	17742	1772.717668773972	268
0	17755	1773.619817175388	269
0	17962	1798.490657158391	270
1	0	0	0
1	165	5.111981843188	5
1	169	5.552977140429	4
1	181	6.577335926937	3
1	187	8.223963686376	2
1	249	15.836635250423	3
1	255	16.277630547664	4
1	271	17.14129330883	3
1	273	17.301989334172	4
1	282	17.653221306633	3
1	283	17.866001911193	4
1	286	17.97747094261	3
1	302	18.948617093611	4
1	306	19.28498492124	3
1	309	19.389612390852	2
1	313	19.635522838798	1
1	330	20.671891059128	0
1	375	23.007350415151	1
1	434	26.118371156261	0
1	450	26.561288657658	1
1	459	26.895854745504	0
1	462	27.002283954899	1
1	487	27.800224730117	0
1	489	27.865946716065	1
1	495	28.026642741407	2
1	500	28.148698919109	3
1	504	28.377874713868	4
1	509	28.590655318428	5
1	517	28.702124349845	6
1	526	28.919557556019	5
1	536	29.673270500846	6
1	544	30.009638328475	5
1	545	30.114265798087	6
1	556	30.360176246033	5
1	578	31.396544466363	6
1	597	32.143632458857	5
1	610	32.760857671385	6
1	617	33.062122127749	5
1	624	33.290047423067	6
1	630	33.667242938516	5
1	633	33.732003822386	6
1	680	35.483828994726	5
1	690	36.231800275068	4
1	698	36.843024563496	5
1	708	37.285942064893	6
1	712	37.620508152739	5
1	714	37.661215376186	6
1	716	37.726937362134	5
1	731	38.20043042471	4
1	740	38.431395927025	5
1	744	38.524878137352	6
1	747	38.5906001233	5
1	751	38.751296148642	6
1	752	38.873352326344	5
1	759	39.102528121103	6
1	764	39.315308725663	5
1	766	39.319763250612	4
1	777	39.644210963254	5
1	791	40.73429173571	6
1	797	41.084829653268	5
1	829	42.455763961444	4
1	833	42.868285866092	5
1	855	43.786775534984	6
1	863	44.391896345751	5
1	888	45.567745804632	4
1	904	46.075179613912	3
1	909	46.208482401961	4
1	927	46.956453682303	5
1	942	47.567677970731	6
1	948	47.77335926937	5
1	952	47.94487348618	4
1	957	48.345161559974	5
1	960	48.451590769369	6
1	968	48.67972764782	5
1	969	48.714092934941	6
1	976	48.925083831945	5
1	981	49.15604933426	6
1	985	49.315253530535	5
1	991	49.51485110116	4
1	993	49.598005733579	5
1	1003	50.039962132898	6
1	1005	50.044416657847	5
1	1007	50.090053721082	4
1	1017	50.368864370489	5
1	1043	51.791709491008	4
1	1044	51.809483060503	5
1	1047	51.825113676051	4
1	1056	52.350695196307	3
1	1069	53.180417368679	4
1	1076	53.592939273327	5
1	1080	53.643030861511	4
1	1084	53.855441438899	5
1	1111	54.922240225844	4
1	1116	55.116549752986	5
1	1126	55.754325229851	4
1	1130	55.965316126855	3
1	1134	56.292399211867	4
1	1144	56.799833021147	5
1	1149	56.928031123244	4
1	1150	56.933135809196	5
1	1165	57.681107089538	6
1	1175	58.015673177384	5
1	1191	58.472784461829	4
1	1192	58.498012676605	5
1	1202	58.669526893415	6
1	1210	58.879432032853	5
1	1211	58.996789942857	6
1	1214	59.069814967209	5
1	1221	59.404381055055	6
1	1224	59.64973723918	5
1	1229	59.845376352296	4
1	1233	59.965541424066	3
1	1235	60.03990693777	4
1	1238	60.239504508395	5
1	1243	60.322659140814	6
1	1248	60.481008263673	5
1	1254	60.769070065082	6
1	1257	60.814707128317	5
1	1259	61.093517777724	6
1	1262	61.127655020572	5
1	1298	62.516362898243	6
1	1300	62.534136467738	5
1	1301	62.549767083286	6
1	1304	62.860279510709	5
1	1312	63.075348603542	6
1	1327	63.875636281243	5
1	1329	63.905070775914	6
1	1335	64.138138446815	5
1	1339	64.23963686376	4
1	1340	64.317592680562	5
1	1341	64.367684268746	6
1	1345	64.580094846134	5
1	1363	65.353327476662	4
1	1370	65.646893633079	5
1	1374	65.841203160221	6
1	1388	66.478978637086	5
1	1395	66.68996953409	6
1	1402	66.951330633154	5
1	1404	67.017052619102	6
1	1411	67.351618706948	5
1	1416	67.524486428382	6
1	1419	67.652684530479	5
1	1420	67.657789216431	6
1	1425	67.769180433618	5
1	1428	67.920661409175	4
1	1436	68.740326584619	5
1	1448	69.197437869064	6
1	1450	69.22266608384	5
1	1453	69.279486950773	6
1	1461	69.604085440088	5
1	1464	69.794468374444	6
1	1478	70.374390646415	5
1	1489	70.570029759531	6
1	1493	70.690194831301	5
1	1494	70.764560345005	6
1	1499	70.96415791563	5
1	1509	71.205661670908	6
1	1517	71.539360535552	5
1	1525	71.852308427807	6
1	1531	72.293303725048	5
1	1543	73.258789874973	6
1	1551	73.584932917944	5
1	1570	74.498280211253	4
1	1572	74.600289688478	5
1	1584	74.86279185405	6
1	1586	74.964290270995	5
1	1587	75.042246087797	6
1	1596	75.304748253369	5
1	1610	76.077980883897	6
1	1614	76.371547040314	5
1	1629	77.203632044321	6
1	1636	77.675984040389	5
1	1638	78.076272114183	6
1	1646	78.377337937714	5
1	1647	78.493833840853	6
1	1654	78.64531481641	5
1	1664	79.464979991854	6
1	1666	79.472555936534	5
1	1670	79.562183958689	6
1	1680	79.7995460797	5
1	1688	79.947319491075	6
1	1692	80.328738847323	5
1	1706	81.09904405365	6
1	1712	81.414848238536	5
1	1716	81.688811322865	6
1	1723	82.264013942787	5
1	1735	82.728845646969	4
1	1744	83.017957132283	5
1	1762	84.309586325179	6
1	1765	84.355211711307	5
1	1769	84.703532462647	6
1	1779	85.222933618488	5
1	1780	85.324943095713	6
1	1783	85.68894367823	5
1	1794	86.023509766076	4
1	1795	86.029401660604	5
1	1813	87.096200447549	6
1	1821	87.908188851736	5
1	1827	88.269193475728	4
1	1828	88.400637447624	5
1	1834	88.969382611803	4
1	1835	89.101991344949	5
1	1840	89.135491609264	4
1	1841	89.369968223645	5
1	1851	89.834799927827	4
1	1853	89.844880966605	5
1	1859	90.197209343769	6
1	1869	90.524199486935	5
1	1877	91.053392254558	6
1	1897	92.139501645771	5
1	1900	92.247473452452	4
1	1911	92.988667350022	5
1	1916	93.453499054204	6
1	1922	93.742610539518	5
1	1925	93.997577513242	4
1	1940	94.986229470563	5
1	1942	95.014143132594	4
1	1947	95.079865118542	5
1	1956	95.375147756586	4
1	1961	95.947587025723	5
1	1971	96.413597085465	6
1	1975	96.748163173311	5
1	1976	96.754055067839	6
1	1980	96.940754208685	5
1	1990	98.124054465677	4
1	1997	98.471437138828	3
1	2005	98.632842258971	4
1	2013	98.928124897015	3
1	2014	98.993846882963	4
1	2017	99.125290854859	5
1	2026	99.826644752184	6
1	2035	100.09462163088	5
1	2038	100.56953437384	6
1	2046	101.1035317941	5
1	2051	101.24885289417	6
1	2061	101.583418982016	5
1	2082	102.701390392614	4
1	2088	102.864155053006	5
1	2101	103.713320757257	6
1	2113	104.467263946753	5
1	2115	104.656508934529	4
1	2118	104.695400825204	3
1	2123	105.112962551874	2
1	2130	105.673074553881	1
1	2132	105.701094281957	0
1	2134	105.710882877798	1
1	2137	105.804518525777	2
1	2147	106.672240432958	3
1	2166	107.472816580546	4
1	2169	107.66540761592	5
1	2173	107.807382668392	4
1	2190	109.357495666206	5
1	2193	109.718500290198	6
1	2195	109.849944262094	5
1	2206	110.819275038115	6
1	2232	111.828185201335	5
1	2241	112.308072389251	6
1	2245	112.779028834739	5
1	2252	113.588808460241	6
1	2282	114.70563991083	5
1	2290	115.191917353988	6
1	2308	116.332005975168	5
1	2314	116.435536285033	6
1	2317	116.529171933012	5
1	2323	117.396893840193	6
1	2329	117.805015662815	5
1	2334	118.197469987781	6
1	2338	118.390061023155	5
1	2359	120.082149073441	6
1	2362	120.230584133856	5
1	2369	120.255310041144	4
1	2370	120.574597669329	5
1	2388	121.811594191688	4
1	2399	122.55283860857	5
1	2420	123.503682241974	6
1	2447	125.430293318065	5
1	2457	126.47927372752	4
1	2473	127.056659382403	5
1	2479	127.253825340247	6
1	2493	128.463947084102	5
1	2494	128.52966907005	6
1	2497	128.917548472546	5
1	2498	129.11471443039	6
1	2507	129.591255570708	5
1	2528	130.955237541091	6
1	2535	131.299251076564	5
1	2551	132.703237413896	4
1	2556	133.277492015805	5
1	2589	135.815219257084	4
1	2594	136.023502753404	3
1	2595	136.1549467253	4
1	2611	137.781312789638	5
1	2620	138.927201100272	4
1	2626	139.188600491337	5
1	2633	139.576479893833	4
1	2634	139.642201879781	5
1	2639	140.315908977943	6
1	2656	142.023904483799	5
1	2659	142.03918294346	4
1	2682	143.897413735047	3
1	2683	144.00214542304	4
1	2698	145.151164786648	3
1	2706	146.228832786247	2
1	2713	146.879600132535	3
1	2729	148.308800239029	2
1	2732	148.474749661984	1
1	2733	148.505966196873	2
1	2741	149.913253898572	3
1	2748	150.366855287016	4
1	2773	152.212490785394	3
1	2775	152.748557891034	4
1	2780	153.052085588921	3
1	2785	153.334787067105	2
1	2798	154.487110316212	1
1	2803	154.715622286384	0
1	2805	154.726798830275	1
1	2823	156.887764207534	0
1	2836	157.60425353977	1
1	2855	159.230619604108	2
1	2864	160.440741347963	1
1	2867	160.637907305807	2
1	2872	160.711074002588	1
1	2875	161.091508694251	2
1	2881	161.965998041628	1
1	2891	162.520708800745	0
1	2898	163.473211298269	1
1	2911	164.447319876836	0
1	2918	165.45145223751	1
1	2936	166.745987932466	0
1	2958	168.328906947005	1
1	2973	169.955273011343	2
1	2986	171.09967276925	1
1	2990	171.362560713042	2
1	3002	171.816162101486	3
1	3015	173.15900137534	2
1	3021	174.197864705504	3
1	3038	175.106251298123	2
1	3049	176.176105644745	3
1	3059	176.732617362461	2
1	3079	179.05356035424	3
1	3096	180.28559450289	2
1	3100	180.679926418578	3
1	3115	182.087214120277	4
1	3121	182.494946904904	3
1	3122	182.540815508721	4
1	3142	184.922518112739	5
1	3149	185.09343707748	4
1	3154	185.311581330966	3
1	3159	185.606928748092	2
1	3168	186.90075905198	3
1	3206	189.778213761475	4
1	3219	190.944525924177	3
1	3220	191.404579825813	4
1	3227	191.830892434468	3
1	3236	192.417535611824	2
1	3240	192.811867527512	3
1	3245	193.265468915956	4
1	3249	193.704879217972	3
1	3259	194.497503064606	2
1	3274	195.647171519974	3
1	3294	197.625412459215	4
1	3304	198.054856120844	3
1	3317	199.523489892682	2
1	3329	200.50286716871	3
1	3338	201.603457345464	2
1	3342	202.129233233048	3
1	3362	203.536520934747	4
1	3370	203.990122323191	5
1	3374	204.27881980722	4
1	3396	206.371824927209	5
1	3410	207.390801650408	4
1	3422	208.35006586645	5
1	3434	210.182421313969	4
1	3438	210.502783493596	3
1	3451	211.227520575945	4
1	3469	212.853886640283	5
1	3482	213.614765336784	4
1	3488	214.261174341982	5
1	3493	214.714775730426	6
1	3511	216.726747179972	5
1	3517	217.096478334444	6
1	3540	219.074719273685	5
1	3548	219.83872902316	4
1	3562	221.95217398318	5
1	3580	223.578540047518	6
1	3596	224.985827749217	5
1	3604	226.062692709536	4
1	3607	226.289460419913	3
1	3624	227.451400587207	4
1	3634	228.400908404558	3
1	3645	229.79937268092	4
1	3675	232.286656395912	3
1	3676	232.676827390415	4
1	3688	233.580251609325	3
1	3707	235.053261296972	2
1	3715	235.506862685416	1
1	3717	235.710481156452	2
1	3729	237.133228749754	1
1	3735	238.176053994442	2
1	3750	239.059839825845	1
1	3766	240.524026088155	2
1	3787	242.612816966274	1
1	3791	243.40148079765	2
1	3802	243.882517957735	1
1	3808	244.239183030612	0
1	3824	246.435134563687	1
1	3839	247.846565611852	0
1	3857	248.900707401677	1
1	3868	249.718771247132	0
1	3879	251.24867949539	1
1	3911	254.070529298228	0
1	3915	254.126134204885	1
1	3941	257.159787970922	2
1	3965	259.625360808912	3
1	3980	260.294492984604	2
1	3988	261.973332902625	3
1	3992	261.97943001161	2
1	4002	262.908147835409	1
1	4019	263.930679808848	0
1	4028	264.85078761212	1
1	4042	266.51845667098	0
1	4053	267.884441378157	1
1	4066	269.110023013615	0
1	4081	270.350014216147	1
1	4103	272.062819689283	0
1	4109	272.69798630986	1
1	4113	272.742420357356	0
1	4137	275.575441019355	1
1	4150	276.64015561622	0
1	4165	278.609094785392	1
1	4173	278.966384043732	0
1	4191	281.074667623382	1
1	4195	281.217491543157	0
1	4221	283.422639717095	1
1	4239	285.190347730108	0
1	4251	286.30009442659	1
1	4269	288.302329573296	0
1	4285	289.333748192627	1
1	4292	290.372163397031	0
1	4311	291.799321030617	1
1	4316	292.35449693228	0
1	4331	294.14729312433	1
1	4350	295.453872684265	0
1	4363	297.024747833825	1
1	4366	297.533840137047	0
1	4396	300.058401599862	1
1	4407	300.750256946048	0
1	4424	302.523974437852	1
1	4439	303.862238789236	0
1	4454	304.871946531565	1
1	4464	306.112804105552	0
1	4476	307.74940124106	1
1	4485	308.446666900621	0
1	4520	310.783055007097	1
1	4529	311.745748698763	0
1	4547	313.248627845087	1
1	4564	315.5965999388	2
1	4584	316.771735526839	1
1	4596	317.836178958653	0
1	4599	318.474054648295	1
1	4603	318.851702979621	0
1	4634	321.507708414332	1
1	4645	322.534129848364	0
1	4659	323.973281252322	1
1	4665	324.331291196141	0
1	4680	326.321253346035	1
1	4687	326.990850812527	0
1	4708	329.19870805553	1
1	4733	331.437245476999	0
1	4745	332.232361821567	1
1	4760	334.536621228984	0
1	4764	334.697934659557	1
1	4768	334.982057221116	0
1	4788	337.04590675327	1
1	4796	338.089598369413	0
1	4811	339.923361462765	1
1	4816	340.007488061482	0
1	4844	342.957015228802	1
1	4859	344.31800275068	0
1	4875	345.422588066792	1
1	4887	347.275520103053	0
1	4900	347.770560160505	1
1	4919	349.877530447212	0
1	4926	350.64801487	1
1	4932	351.171097776309	0
1	4962	353.681668636037	1
1	4968	354.381474383911	0
1	4987	356.147241474027	1
1	4990	356.308085460002	0
1	5008	358.49521356774	1
1	5024	359.861062600431	0
1	5039	361.372668277235	1
1	5055	362.989893809808	0
1	5068	364.406322043272	1
1	5091	366.513415492845	0
1	5092	366.871894881262	1
1	5122	369.213857496184	0
1	5123	369.219866974975	1
1	5138	372.09732168447	2
1	5147	372.325839339372	1
1	5164	374.072971162147	0
1	5169	375.130975450507	1
1	5195	377.172346914132	0
1	5205	377.596548288497	1
1	5208	377.625948302576	0
1	5221	379.94452038221	1
1	5227	380.725324054561	0
1	5249	382.821975091705	1
1	5263	384.27830119499	0
1	5279	385.855628857742	1
1	5291	386.496217862708	0
1	5307	388.321201695732	1
1	5323	390.669173789445	2
1	5331	390.9977303985	1
1	5336	391.384255475848	0
1	5353	393.54662849894	1
1	5357	394.109712241688	0
1	5379	396.580282264977	1
1	5384	397.017200069059	0
1	5406	399.045855102967	1
1	5416	400.228225643519	0
1	5430	401.39382719668	1
1	5435	402.043186897135	0
1	5453	404.271281906175	1
1	5478	406.55763961444	0
1	5481	407.304935672212	1
1	5510	409.602742566437	0
1	5515	409.770508510202	1
1	5530	412.118480603915	2
1	5540	412.781603300816	1
1	5559	414.782085771204	0
1	5560	414.99593531341	1
1	5575	416.255095458851	0
1	5590	418.029589079447	1
1	5602	418.537569351267	0
1	5615	420.495161917437	1
1	5634	422.11754883038	0
1	5637	422.84313401115	1
1	5660	425.229530673568	0
1	5666	425.720588720645	1
1	5674	426.914026880138	0
1	5700	428.754242486682	1
1	5719	430.920605409011	0
1	5721	431.219815324672	1
1	5728	431.453494359944	0
1	5743	433.567787418385	1
1	5761	434.565476203132	0
1	5775	436.44524212788	1
1	5783	437.572958301425	0
1	5805	439.478895893917	1
1	5825	441.579536830298	0
1	5829	441.944468731907	1
1	5853	444.29244082562	2
1	5858	445.132513970727	1
1	5877	447.169895535115	2
1	5906	450.125385419072	1
1	5907	450.203549301152	2
1	5916	450.578920839826	1
1	5926	451.784866863141	0
1	5933	452.669122139142	1
1	5941	453.23736726226	0
1	5952	455.017094232855	1
1	5971	456.349349105448	0
1	5979	457.89454894235	1
1	5995	459.461330948636	0
1	6016	460.928202708387	1
1	6019	460.970788596781	0
1	6031	463.393775546377	1
1	6043	464.310928620637	0
1	6057	465.74174764009	1
1	6064	465.996775424857	0
1	6085	468.619202349585	1
1	6090	468.7972764782	0
1	6118	471.652856115622	1
1	6140	473.556331094159	0
1	6144	474.118428953612	1
1	6155	475.182697158497	0
1	6162	476.466401047325	1
1	6165	476.655706846144	0
1	6190	479.34385575682	1
1	6210	480.662285375017	0
1	6229	482.377509522857	1
1	6240	484.215262515446	0
1	6246	484.843082360847	1
1	6261	487.19105445456	2
1	6266	487.197608255322	1
1	6268	487.314638267431	0
1	6296	490.068509164055	1
1	6325	492.947582860642	0
1	6326	493.102162930092	1
1	6348	495.567735768082	2
1	6363	496.500560001071	1
1	6366	496.805113066892	0
1	6369	497.915707861795	1
1	6389	500.0535371415	0
1	6399	500.79316257129	1
1	6405	501.526546829147	0
1	6432	503.826816337327	1
1	6439	505.079523969576	0
1	6458	506.292389175317	1
1	6467	507.159491422358	0
1	6475	508.64036126903	1
1	6481	509.253040439644	0
1	6507	511.517815978525	1
1	6533	514.265445703216	0
1	6534	514.551469744562	1
1	6539	514.661623816944	0
1	6558	517.017042582552	1
1	6576	519.008890880168	0
1	6583	519.365014676265	1
1	6605	521.700967812396	0
1	6606	522.24246938576	1
1	6613	522.844409671721	0
1	6640	525.276123151797	1
1	6654	526.850988200594	0
1	6658	527.741695989787	1
1	6682	529.950363952579	0
1	6683	530.0896680835	1
1	6692	531.03691334196	0
1	6708	532.967122792995	1
1	6712	532.970967524692	0
1	6738	536.000776559032	1
1	6747	537.056318233437	0
1	6764	538.466349397022	1
1	6779	540.372858871524	0
1	6785	540.814321490735	1
1	6802	542.125639378566	0
1	6813	543.69177620023	1
1	6840	546.5968225579	0
1	6844	546.725429966267	1
1	6864	549.191002804257	2
1	6874	549.795217107506	1
1	6884	551.268226795153	0
1	6888	551.53897489797	1
1	6903	552.820786244276	0
1	6909	554.416429607465	1
1	6949	557.450083373502	2
1	6968	559.044749930652	1
1	6969	559.915656211492	2
1	6978	560.454148528793	1
1	6987	561.92715821644	0
1	6991	562.263628305205	1
1	6995	562.380759604884	0
1	7020	565.1410830147	1
1	7024	565.268713617028	0
1	7052	568.174736780737	1
1	7056	568.380695460216	0
1	7075	570.640309618727	1
1	7085	571.492677303404	0
1	7098	572.98828171244	1
1	7114	574.604659146592	0
1	7121	575.865736421935	1
1	7140	576.5926681666	0
1	7163	578.899390187972	1
1	7168	579.692043918585	0
1	7183	581.364963025962	1
1	7197	583.245021059014	0
1	7203	583.712935119675	1
1	7230	586.59038982917	2
1	7234	586.797998199443	1
1	7240	587.052586519344	0
1	7265	589.624043595207	1
1	7273	590.350975339872	0
1	7282	592.089616433197	1
1	7308	593.903952480301	0
1	7313	594.43758852691	1
1	7325	596.388532048908	0
1	7338	597.315043236405	1
1	7342	597.45692962073	0
1	7367	600.348697002442	1
1	7390	602.814269840432	2
1	7412	605.016485290032	1
1	7413	605.162241934145	2
1	7442	608.03969664364	3
1	7461	608.83645942166	2
1	7473	611.073350409677	3
1	7485	612.12243957089	2
1	7492	613.538923247667	3
1	7504	615.060423108036	2
1	7515	615.221815322875	1
1	7519	615.363014209558	0
1	7525	615.88689534138	1
1	7542	618.172404951224	0
1	7545	618.764350050875	1
1	7581	621.798003816912	2
1	7603	624.263576654902	3
1	7625	626.611548748615	4
1	7658	629.48900345811	5
1	7664	629.887325273035	4
1	7676	631.513691337373	3
1	7683	632.522657224147	4
1	7694	633.672357917306	3
1	7705	634.988230062137	4
1	7713	636.050977954976	3
1	7727	636.844296010352	2
1	7731	637.33620215585	3
1	7758	639.95627785354	2
1	7762	640.092655305878	1
1	7764	640.213656865345	2
1	7786	643.247310631382	3
1	7812	645.712883469372	4
1	7817	645.80448521121	3
1	7821	646.180241539916	2
1	7825	647.198609586736	1
1	7833	647.65221097518	0
1	7834	648.060855563085	1
1	7862	650.93831027258	2
1	7885	653.971964038617	3
1	7891	654.304563867594	2
1	7905	655.51618706948	1
1	7907	655.557992467444	0
1	7913	656.437536876607	1
1	7917	656.559037551991	0
1	7934	658.78550897032	1
1	7943	659.937508460805	0
1	7969	661.662963679815	1
1	7976	661.864119536896	0
1	7987	664.696617445852	1
1	7996	664.963495288881	0
1	8019	667.162190283842	1
1	8029	667.964114442232	0
1	8039	669.510162377555	1
1	8046	670.291045332802	0
1	8072	672.38761708705	1
1	8081	674.149417022521	0
1	8096	675.421270853087	1
1	8110	676.076028098612	0
1	8124	677.886843691077	1
1	8138	679.629005239041	0
1	8143	680.23481578479	1
1	8150	680.412041814984	0
1	8174	683.112270494285	1
1	8180	683.524023658172	0
1	8203	686.145924260322	1
1	8206	686.281358131455	0
1	8229	688.611497098312	1
1	8252	690.959469192025	2
1	8261	691.914302724666	1
1	8272	692.859969187736	0
1	8283	693.83692390152	1
1	8294	695.467279865095	0
1	8304	696.870577667557	1
1	8332	699.336150505547	2
1	8343	700.946868081615	1
1	8355	701.68412259926	2
1	8359	702.1959147173	1
1	8379	704.0462438336	0
1	8386	704.561577308755	1
1	8396	705.307896560488	0
1	8411	707.595231074792	1
1	8414	707.599220974029	0
1	8433	710.060803912782	1
1	8445	711.487068675235	0
1	8459	712.408776006495	1
1	8485	714.643842090052	0
1	8491	715.28623071599	1
1	8498	716.064404602172	0
1	8514	718.319884482027	1
1	8541	720.785457320017	2
1	8554	721.811129535745	1
1	8556	722.264730924189	0
1	8563	723.13342941373	1
1	8574	723.979787619616	0
1	8594	726.010884123225	1
1	8611	727.444074128956	0
1	8617	729.044537889262	1
1	8633	730.203751305992	0
1	8639	731.510110727252	1
1	8651	732.597515029691	0
1	8665	733.858082820965	1
1	8673	734.37374830992	0
1	8696	736.73553753046	1
1	8710	738.951084236857	0
1	8718	739.769191296497	1
1	8739	742.234764134487	2
1	8751	742.706996115595	1
1	8760	743.528420163794	0
1	8771	744.5827362282	1
1	8786	745.763660521932	0
1	8796	747.460190937695	1
1	8807	748.105756090731	0
1	8830	750.493844703732	1
1	8839	751.987624208308	0
1	8851	752.959417541722	1
1	8876	755.307389635435	2
1	8910	758.18484434493	3
1	8915	758.211587894684	2
1	8922	760.47188181774	1
1	8924	761.021332153123	0
1	8929	761.218498110967	1
1	8933	761.323569737872	0
1	8953	763.684070948957	1
1	8965	764.574309293552	0
1	8980	766.03204304267	1
1	9012	768.909497752165	2
1	9024	770.659515267436	1
1	9036	771.943151518202	2
1	9042	772.298600090171	1
1	9059	774.408724356192	2
1	9075	775.8515772306	1
1	9081	776.756696449905	2
1	9097	778.236767519885	1
1	9102	778.786217855268	0
1	9111	779.6341511594	1
1	9130	781.789744660314	0
1	9141	782.667804925437	1
1	9144	782.957531511458	0
1	9161	785.133377763427	1
1	9170	785.892172136126	0
1	9188	787.48134985714	1
1	9214	789.445149276555	0
1	9224	790.358804566635	1
1	9236	792.448676081601	0
1	9247	793.392458332672	1
1	9259	793.879115360101	0
1	9268	795.858031170662	1
1	9287	797.169440073174	0
1	9296	798.206003264375	1
1	9304	798.667351856128	0
1	9325	801.08345797387	1
1	9340	803.033787213975	0
1	9354	804.117111739907	1
1	9357	804.275394354032	0
1	9372	806.582684577897	1
1	9378	807.2100349787	0
1	9399	808.93065667161	1
1	9416	810.213561783746	0
1	9428	811.808111381105	1
1	9432	812.188459067849	0
1	9458	814.841765147142	1
1	9474	817.307337985132	2
1	9477	817.319516064604	1
1	9503	819.655310078845	2
1	9509	820.451224758444	1
1	9514	820.872493205033	0
1	9534	822.53276478834	1
1	9557	825.566418554377	2
1	9579	828.031991392367	3
1	9605	829.787170288008	2
1	9608	830.37996348608	3
1	9621	831.121123079656	2
1	9624	831.53142462632	1
1	9638	832.899152131196	0
1	9639	833.257418195575	1
1	9666	836.291071961612	2
1	9679	838.756644799602	3
1	9715	841.104616893315	4
1	9723	842.190356047607	3
1	9726	842.23509766076	2
1	9732	843.98207160281	3
1	9761	847.015725368847	4
1	9774	848.459061347136	3
1	9782	849.296310328465	2
1	9783	849.481298206837	3
1	9794	849.845760663848	2
1	9812	851.82927030055	3
1	9817	852.849287468894	2
1	9825	853.398737804277	1
1	9830	854.017074320038	0
1	9838	854.706725010045	1
1	9850	856.402264609323	0
1	9865	857.740378776082	1
1	9873	857.7950068767	0
1	9882	860.205951614072	1
1	9889	860.504692085135	0
1	9919	862.553923707785	1
1	9929	864.057669225564	0
1	9935	865.43137841728	1
1	9954	867.116490191093	0
1	9965	868.465032183317	1
1	9983	870.242934249452	0
1	9992	870.930605021307	1
1	10007	873.27857711502	2
1	10011	873.35491609264	1
1	10021	874.716600646851	0
1	10025	876.156031824515	1
1	10032	876.466897935828	0
1	10056	879.189685590552	1
1	10061	879.578879779016	0
1	10081	881.655258428542	1
1	10100	884.003230522255	2
1	10112	885.375532068138	1
1	10119	885.802843465392	0
1	10126	886.88068523175	1
1	10137	888.379058873184	0
1	10155	889.914338997787	1
1	10172	891.932036013613	0
1	10179	892.379911835777	1
1	10202	894.72788392949	2
1	10206	895.138788994956	1
1	10208	895.485013154042	0
1	10221	897.605338638985	1
1	10238	899.157841679652	0
1	10250	900.638992405022	1
1	10254	901.362752681332	0
1	10270	903.104565243012	1
1	10273	903.140417770283	0
1	10289	905.452537336725	1
1	10310	907.586716367708	0
1	10314	908.32999204622	1
1	10334	910.246372051141	0
1	10340	911.363645812257	1
1	10368	913.810680054084	0
1	10369	913.829218650247	1
1	10383	916.17719074396	2
1	10394	917.352326331999	1
1	10401	917.4671853874	0
1	10411	919.054645453455	1
1	10426	920.905303472428	0
1	10442	922.088299219492	1
1	10449	923.146625583648	0
1	10463	924.553872057482	1
1	10478	926.258607426836	0
1	10482	926.901844151195	1
1	10493	928.011257753286	0
1	10507	929.77929886069	1
1	10534	932.812952626727	2
1	10555	935.117212034144	1
1	10556	935.278525464717	2
1	10571	937.62649755843	3
1	10591	938.670189174573	2
1	10602	940.353865022085	1
1	10603	940.503952267925	2
1	10609	941.673715979619	1
1	10615	941.818516642776	0
1	10628	943.537606033962	1
1	10651	945.776143455431	0
1	10655	946.003178871952	1
1	10669	948.042480329152	0
1	10673	948.351150965665	1
1	10679	948.779670260477	0
1	10698	951.22860567516	1
1	10711	952.332647400906	0
1	10728	954.262259441197	1
1	10732	954.266444015528	0
1	10748	956.727832279187	1
1	10755	957.378425858716	0
1	10771	959.0758043729	1
1	10780	959.438601681764	0
1	10794	961.953259082395	1
1	10816	963.541029157576	0
1	10824	964.986912848432	1
1	10839	966.544555962622	0
1	10849	967.452485686422	1
1	10859	967.817880583707	0
1	10865	969.800457780135	1
1	10869	969.826353231468	0
1	10890	972.67791248963	1
1	10919	975.711566255667	2
1	10933	976.972552437581	1
1	10937	977.423731923166	0
1	10949	978.177139093657	1
1	10962	980.52511118737	2
1	10990	983.402565896865	3
1	11003	984.309441664767	2
1	11005	984.85889200015	1
1	11011	986.127224291455	0
1	11018	986.436219662902	1
1	11040	988.901792500892	2
1	11056	990.704560218392	1
1	11063	991.249764594605	2
1	11066	991.415395945625	1
1	11076	994.1272193041	2
1	11092	994.722207976972	1
1	11094	994.968373086054	0
1	11108	997.160873070137	1
1	11118	997.83418982016	0
1	11140	999.626445908127	1
1	11151	1001.97441800184	2
1	11183	1004.851872711335	3
1	11202	1007.170135349724	2
1	11205	1007.885526477372	3
1	11213	1009.01390392614	2
1	11229	1010.282117192912	1
1	11230	1010.351099315362	2
1	11247	1012.699071409075	3
1	11254	1013.282709123582	2
1	11257	1013.3940990361	1
1	11277	1015.57652611857	2
1	11284	1016.437760948102	1
1	11288	1016.506080879288	0
1	11305	1018.610179884607	1
1	11317	1019.618062722476	0
1	11327	1021.075752722597	1
1	11340	1022.730044565664	0
1	11348	1023.42372481631	1
1	11361	1025.842026408852	0
1	11368	1026.301179525805	1
1	11380	1026.945167349915	0
1	11392	1029.334833291842	1
1	11416	1031.047594825727	0
1	11418	1031.800406129832	1
1	11425	1032.065990095228	0
1	11436	1034.148378223545	1
1	11445	1034.600571966156	0
1	11466	1037.02583293304	1
1	11476	1038.289953781604	0
1	11489	1040.059486699077	1
1	11502	1041.055255414699	0
1	11516	1042.525059537067	1
1	11535	1044.87303163078	2
1	11543	1045.632591341636	1
1	11564	1047.625899311168	0
1	11565	1047.750486340275	1
1	11569	1048.263030192489	0
1	11591	1050.784140106312	1
1	11607	1052.365457668301	0
1	11608	1053.249712944302	1
1	11613	1053.849862997544	0
1	11630	1055.597685038015	1
1	11654	1058.47513974751	2
1	11670	1059.471411949159	1
1	11685	1061.508793513547	2
1	11691	1062.474938754205	1
1	11701	1063.024389089588	0
1	11711	1063.974366351537	1
1	11728	1066.297790370296	0
1	11729	1066.32233844525	1
1	11749	1068.519270976321	0
1	11753	1069.199793154745	1
1	11759	1069.580893035063	0
1	11782	1072.233446920782	1
1	11786	1072.521754056672	0
1	11800	1074.699019758772	1
1	11813	1075.63373589986	0
1	11823	1077.046991852485	1
1	11850	1079.92444656198	2
1	11881	1082.958100328017	3
1	11885	1083.792801596779	2
1	11895	1084.969681429424	1
1	11896	1085.423673166007	2
1	11915	1086.828614684069	1
1	11923	1087.77164525972	2
1	11930	1088.081663272612	1
1	11939	1090.649099969215	2
1	11945	1090.898755877637	1
1	11951	1091.1936451158	0
1	11967	1093.682753735252	1
1	11974	1094.305626958988	0
1	11997	1096.148326573242	1
1	12012	1098.496298666955	2
1	12016	1098.554160493878	1
1	12036	1100.56062246488	0
1	12040	1101.37375337645	1
1	12069	1104.407407142487	2
1	12079	1105.137958391817	1
1	12081	1105.660114774736	0
1	12088	1106.872979980477	1
1	12106	1108.663641579782	0
1	12112	1109.22095207419	1
1	12119	1109.865536174928	0
1	12135	1112.098406783685	1
1	12153	1113.972833510442	0
1	12165	1115.132060549722	1
1	12176	1116.089499861304	0
1	12185	1117.597633387712	1
1	12203	1119.201481704492	0
1	12212	1119.945605481425	1
1	12229	1122.82306019092	2
1	12240	1123.425000476881	1
1	12260	1125.856713956957	2
1	12270	1126.97797761731	1
1	12280	1128.322286794947	2
1	12284	1128.537427234056	1
1	12295	1130.530954757739	0
1	12297	1130.67025888866	1
1	12331	1133.547713598155	2
1	12334	1134.083931898168	1
1	12352	1136.581367364192	2
1	12357	1137.087458703214	1
1	12360	1137.179309880376	0
1	12377	1139.046940202182	1
1	12394	1141.189886179026	0
1	12395	1141.394912295895	1
1	12412	1143.233355279144	0
1	12425	1144.27236700539	1
1	12431	1144.742863319455	0
1	12453	1147.306020771427	1
1	12470	1149.771593609417	2
1	12482	1150.911317661187	1
1	12487	1151.29936726493	0
1	12494	1152.11956570313	1
1	12503	1152.986862535378	0
1	12519	1154.997020412625	1
1	12528	1155.401794740742	0
1	12543	1158.030674178662	1
1	12551	1158.954771881171	0
1	12570	1160.496247016652	1
1	12584	1162.769227509124	0
1	12585	1162.844219110365	1
1	12609	1165.72167381986	2
1	12613	1165.881209352312	1
1	12635	1168.755327585897	2
1	12639	1168.9931911955	1
1	12641	1169.064252967075	0
1	12657	1171.220900423887	1
1	12671	1172.493877047846	0
1	12680	1173.5688725176	1
1	12705	1176.170207247933	0
1	12707	1176.446327227095	1
1	12713	1176.719657583316	0
1	12733	1179.479980993132	1
1	12748	1181.441118568252	0
1	12752	1181.945553831122	1
1	12761	1182.952669149746	0
1	12778	1184.293525924835	1
1	12793	1186.82913866922	0
1	12795	1187.17098063433	1
1	12807	1187.665082254628	0
1	12824	1190.204634400367	1
1	12830	1190.777064097816	0
1	12851	1192.670207238357	1
1	12859	1193.889045941004	0
1	12870	1195.01817933207	1
1	12882	1196.684676930557	0
1	12888	1197.895634041565	1
1	12892	1198.03752042589	0
1	12918	1200.929287807602	1
1	12926	1201.590497566319	0
1	12943	1203.394860645592	1
1	12958	1205.742832739305	2
1	12971	1206.336973313756	1
1	12982	1208.6202874488	2
1	12992	1209.448955156944	1
1	13011	1211.507906072782	0
1	13013	1211.653941214837	1
1	13022	1212.249428987606	0
1	13033	1214.119514052827	1
1	13038	1214.994020638305	0
1	13061	1216.46748614654	1
1	13069	1218.784900686508	0
1	13072	1219.344940856035	1
1	13098	1221.261413329016	0
1	13108	1222.378594622072	1
1	13128	1224.844167460062	2
1	13140	1225.911887213939	1
1	13145	1226.461337549322	0
1	13149	1227.192139553775	1
1	13168	1229.464864354368	0
1	13171	1230.06959426327	1
1	13188	1231.23282805926	0
1	13200	1233.103248029307	1
1	13205	1233.303364346053	0
1	13221	1235.568820867297	1
1	13239	1237.120268970609	0
1	13249	1237.91679296101	1
1	13266	1240.673246111038	0
1	13270	1240.794247670505	1
1	13299	1243.680755432012	0
1	13300	1243.827901436542	1
1	13316	1246.293474274532	2
1	13320	1246.7927372752	1
1	13342	1248.641446368245	2
1	13347	1249.904719118388	1
1	13365	1251.51890107774	2
1	13380	1253.016700961576	1
1	13385	1254.552554843777	2
1	13388	1254.885154672754	1
1	13401	1256.128682804764	0
1	13413	1257.018127681767	1
1	13418	1257.8886814778	0
1	13429	1259.36609977548	1
1	13441	1260.767379907675	0
1	13454	1262.243554484975	1
1	13459	1262.35264649114	0
1	13475	1265.277208251012	1
1	13482	1265.464628334328	0
1	13497	1267.742781089002	1
1	13509	1268.576610177516	0
1	13522	1270.090753182715	1
1	13535	1272.100590039516	0
1	13546	1272.96820789221	1
1	13557	1274.499387688486	0
1	13567	1276.001861658247	1
1	13584	1277.91255570708	0
1	13588	1278.467434496237	1
1	13613	1280.81540658995	2
1	13617	1281.024537550268	1
1	13638	1283.65405954236	0
1	13639	1283.692861299445	1
1	13650	1286.726515065482	2
1	13656	1286.861948936615	1
1	13659	1287.248501236644	0
1	13680	1289.192087903472	1
1	13687	1289.865475741661	0
1	13698	1291.540059997185	1
1	13716	1293.47246492302	0
1	13724	1294.41751470668	1
1	13738	1296.584446766208	0
1	13747	1297.451168472717	1
1	13750	1297.520880357902	0
1	13773	1299.916741310707	1
1	13777	1300.524407162948	0
1	13789	1302.26471340442	1
1	13812	1304.62683463876	0
1	13819	1305.142168113915	1
1	13824	1305.920392295772	0
1	13837	1308.175821879952	1
1	13858	1310.641394717942	2
1	13872	1311.732788919618	1
1	13878	1312.144355982148	0
1	13885	1312.989366811655	1
1	13897	1315.256337825336	0
1	13908	1315.86682152115	1
1	13926	1318.368319668524	0
1	13931	1318.900475287187	1
1	13943	1320.272746957856	0
1	13953	1321.366048125177	1
1	13958	1321.480301511712	0
1	13969	1323.71402021889	1
1	13977	1324.5922833549	0
1	13999	1326.591474928385	1
1	14020	1329.42741881173	0
1	14023	1329.625128694422	1
1	14035	1330.816247041276	0
1	14042	1332.090701532412	1
1	14069	1334.438673626125	2
1	14090	1337.31612833562	3
1	14097	1338.582090665604	2
1	14113	1340.15660604305	1
1	14119	1340.349782101657	2
1	14131	1342.815354939647	3
1	14149	1343.709583183479	2
1	14160	1345.16332703336	3
1	14168	1346.376156257216	2
1	14178	1347.262560323908	1
1	14181	1347.736762519478	0
1	14185	1348.040781742855	1
1	14212	1351.074435508892	2
1	14222	1352.314098446415	1
1	14227	1352.600119943592	0
1	14231	1353.540008346882	1
1	14249	1355.71210178678	0
1	14253	1355.887980440595	1
1	14263	1356.891434373352	0
1	14276	1358.76543515009	1
1	14307	1361.799088916127	2
1	14321	1364.264661754117	3
1	14327	1364.47799569067	2
1	14335	1365.027446026053	1
1	14339	1365.048047316344	0
1	14346	1366.61263384783	1
1	14360	1368.160029159532	0
1	14371	1369.490088557325	1
1	14381	1370.623442154163	0
1	14397	1372.523742323362	1
1	14414	1374.989315161352	2
1	14431	1377.31752942876	1
1	14433	1377.337287255065	2
1	14450	1378.689904252386	1
1	14454	1379.239354587769	0
1	14465	1380.21474196456	1
1	14476	1382.242881392815	0
1	14485	1383.248395730597	1
1	14489	1383.719938375472	0
1	14507	1385.713968568587	1
1	14521	1386.83192021866	0
1	14524	1388.0619406623	1
1	14533	1388.932785861911	0
1	14551	1390.939395371795	1
1	14557	1392.901812814102	0
1	14577	1393.973049137832	1
1	14596	1396.438621975822	2
1	14601	1396.824543941228	1
1	14611	1398.786594069535	2
1	14619	1399.279847591412	1
1	14640	1401.66404877903	2
1	14644	1402.3918294346	1
1	14647	1402.664793642722	0
1	14664	1404.697702545067	1
1	14679	1406.578051197462	0
1	14686	1407.163275383057	1
1	14708	1409.51124747677	2
1	14722	1411.21614885163	1
1	14728	1411.819465496596	0
1	14732	1412.388702186265	1
1	14755	1415.422355952302	2
1	14778	1417.772652797105	1
1	14779	1417.887928790292	2
1	14785	1418.322103132488	1
1	14791	1420.235900884005	2
1	14798	1420.97413735047	1
1	14804	1421.063720493728	0
1	14819	1423.1133555935	1
1	14826	1424.175702336916	0
1	14848	1426.147009359537	1
1	14869	1428.431584218392	0
1	14871	1428.612582197527	1
1	14887	1430.399666023292	0
1	14890	1430.96055429124	1
1	14911	1433.838009000735	2
1	14941	1436.623629709668	1
1	14944	1436.871662766772	2
1	14959	1439.283481058218	1
1	14960	1439.337235604762	2
1	14967	1439.735611552856	1
1	14979	1441.685207698475	2
1	14995	1443.860816985155	1
1	14999	1444.56266240797	2
1	15023	1446.196469920537	1
1	15028	1446.74592025592	0
1	15032	1447.596316174007	1
1	15043	1449.07155708242	0
1	15055	1450.061889011997	1
1	15072	1452.40986110571	2
1	15090	1453.851874536778	1
1	15095	1455.287315815205	2
1	15100	1455.295520768796	1
1	15118	1457.404851677207	0
1	15127	1458.320969581242	1
1	15139	1460.408378482253	0
1	15146	1460.786542419232	1
1	15164	1463.134514512945	2
1	15170	1463.961355622682	1
1	15178	1464.63146629836	0
1	15183	1466.01196922244	1
1	15199	1467.514332763111	0
1	15214	1469.045622988477	1
1	15226	1470.855429984736	0
1	15232	1471.511195826467	1
1	15249	1473.85916792018	2
1	15264	1474.8526019911	1
1	15267	1475.169737379352	0
1	15278	1476.736622629675	1
1	15296	1478.173264184398	0
1	15305	1479.770276395712	1
1	15323	1482.235849233702	2
1	15329	1482.27569166021	1
1	15342	1483.303357357488	0
1	15346	1484.583821327415	1
1	15356	1485.279218465256	0
1	15369	1487.46127603691	1
1	15383	1488.832195605685	0
1	15400	1490.494929802947	1
1	15416	1492.960502640937	2
1	15427	1494.359616503568	1
1	15437	1495.30847473465	2
1	15443	1495.938149886543	1
1	15455	1498.185929444145	2
1	15465	1498.788848108399	1
1	15468	1498.863266573428	0
1	15485	1501.219583210182	1
1	15489	1501.975248416616	0
1	15508	1503.685156048172	1
1	15523	1505.087230259804	0
1	15527	1506.033128141885	1
1	15533	1506.59708130783	0
1	15555	1508.91058285138	1
1	15572	1511.31119394618	0
1	15573	1511.944236617417	1
1	15599	1514.409809455407	2
1	15603	1514.423175789368	1
1	15619	1516.75778154912	2
1	15624	1517.098191816147	1
1	15641	1519.635236258615	2
1	15651	1520.647139475744	1
1	15656	1520.808989869546	0
1	15670	1522.668890024652	1
1	15683	1524.361967009975	0
1	15690	1525.134462862642	1
1	15698	1526.252863670021	0
1	15708	1527.482434956355	1
1	15716	1528.464394485787	0
1	15732	1530.35988966585	1
1	15756	1533.373645528504	0
1	15758	1533.393543431887	1
1	15777	1535.407535523895	0
1	15783	1535.859116269877	1
1	15787	1536.207048691684	0
1	15797	1538.20708836359	1
1	15805	1539.123325907074	0
1	15820	1541.084543073085	1
1	15828	1542.12685271212	0
1	15846	1544.118196839122	1
1	15862	1545.542994221248	0
1	15869	1546.583769677112	1
1	15886	1548.931741770825	2
1	15911	1551.766957907624	1
1	15912	1551.80919648032	2
1	15920	1552.785784133407	1
1	15931	1553.716879231643	0
1	15935	1554.842850246357	1
1	15958	1557.308423084347	2
1	15976	1559.65639517806	3
1	15987	1560.441188749648	2
1	15993	1561.102903437188	1
1	15996	1562.533849887555	2
1	16003	1562.634167297206	1
1	16033	1565.567503653592	2
1	16054	1568.033076491582	3
1	16067	1570.381048585295	4
1	16079	1571.100120170935	3
1	16099	1573.25850329479	4
1	16109	1574.653097311364	3
1	16118	1576.292157060827	4
1	16125	1576.662812653128	3
1	16137	1578.206074451793	2
1	16138	1578.757729898817	3
1	16157	1581.10570199253	4
1	16161	1581.180894793265	3
1	16169	1581.759051592222	2
1	16183	1583.983156702025	3
1	16210	1587.016810468062	4
1	16232	1589.11074002588	3
1	16233	1589.482383306052	4
1	16250	1591.830355399765	5
1	16276	1594.70781010926	6
1	16283	1594.912902574076	5
1	16289	1595.334703712256	4
1	16304	1597.741463875297	5
1	16326	1600.207036713287	6
1	16341	1601.648196322142	5
1	16348	1602.555008807	6
1	16365	1604.67064924182	5
1	16374	1605.637555981311	6
1	16392	1608.466117282532	5
1	16395	1608.644910354887	4
1	16402	1609.633418380271	3
1	16411	1610.894612928196	2
1	16422	1612.372849729377	3
1	16438	1614.006594771384	2
1	16444	1615.395302649055	3
1	16466	1617.288822996512	2
1	16475	1619.190770689767	3
1	16486	1620.23055845776	2
1	16488	1620.292349801558	1
1	16508	1622.376918135698	0
1	16509	1623.097503136612	1
1	16521	1624.39477727737	0
1	16534	1626.11995605629	1
1	16543	1626.454522144136	0
1	16565	1629.915424097002	1
1	16581	1631.500731558228	0
1	16600	1633.822156543847	1
1	16608	1635.053708698657	0
1	16624	1636.844609463525	1
1	16633	1638.057235503703	0
1	16650	1640.640077504237	1
1	16654	1640.662225347078	0
1	16682	1644.546809951082	1
1	16686	1645.126413203264	0
1	16711	1647.56926287076	1
1	16741	1651.364730911472	2
1	16756	1652.818594400802	1
1	16767	1654.462358732828	0
1	16771	1655.271463358317	1
1	16781	1656.371571541231	0
1	16798	1658.293916277995	1
1	16805	1659.375098346277	0
1	16826	1662.089384318707	1
1	16841	1663.572941478131	0
1	16856	1665.996116765552	1
1	16859	1666.481052627135	0
1	16884	1669.01856968523	1
1	16900	1670.022267948768	0
1	16916	1672.814037725942	1
1	16929	1673.587006907993	0
1	16944	1676.720770172787	1
1	16950	1677.139984048422	0
1	16980	1679.743223092465	1
1	17009	1683.538691133177	2
1	17015	1684.24593832928	1
1	17026	1685.582177164708	0
1	17035	1687.445423580022	1
1	17045	1688.348365805092	0
1	17063	1690.4678764997	1
1	17067	1691.036957039753	0
1	17096	1694.263344540412	1
1	17122	1698.170076987257	2
1	17128	1698.457846890996	1
1	17135	1699.183268884482	0
1	17156	1701.192529906935	1
1	17183	1704.254068223836	0
1	17187	1704.987997947647	1
1	17214	1708.894730394492	2
1	17239	1711.91718331417	3
1	17271	1715.712651354882	4
1	17281	1716.701995596588	3
1	17294	1718.500972601375	2
1	17302	1719.619383801727	3
1	17309	1719.813977439776	2
1	17314	1720.325160068953	1
1	17328	1722.641836721405	2
1	17336	1723.078308528312	1
1	17338	1723.328686873999	0
1	17362	1726.437304762117	1
1	17382	1729.14992296934	0
1	17398	1730.344037208962	1
1	17420	1733.36649012864	2
1	17439	1735.373886655716	1
1	17447	1736.810316309123	0
1	17451	1737.161958169352	1
1	17455	1737.540595435715	0
1	17481	1741.068690616197	1
1	17485	1741.093572576144	0
1	17505	1744.091143535875	1
1	17522	1745.196000051956	0
1	17539	1747.886611576587	1
1	17542	1747.950805165652	0
1	17574	1751.793344023432	1
1	17580	1752.301954332814	0
1	17595	1754.81579694311	1
1	17606	1755.854931473243	0
1	17626	1758.611264983822	1
1	17629	1758.858458278289	0
1	17660	1762.517997430667	1
1	17670	1763.381723244408	0
1	17685	1765.540450350345	1
1	17697	1766.51386289453	0
1	17718	1769.335918391057	1
1	17724	1769.605686930784	0
1	17748	1773.242650837902	1
1	17753	1773.429003724619	0
1	17774	1776.26510375758	1
1	17801	1780.060571798292	2
1	17835	1783.967304245137	3
1	17861	1786.964834190588	2
1	17863	1786.989757164815	3
1	17871	1787.831725737104	2
1	17877	1788.277577989912	1
1	17892	1790.785225205527	2
1	17895	1790.83525254215	1
1	17900	1791.384702877533	0
1	17923	1794.691957652372	1
1	17932	1794.937680017962	0
1	17954	1797.71441057205	1
1	17960	1797.941206823008	0
2	0	0	0
2	2400	122.55283860857	1
2	2402	122.688159842697	2
2	2410	123.00244166204	3
2	2516	130.381218604931	4
2	2521	130.53371259895	5
2	2533	131.069271106176	6
2	2576	135.102685828244	7
2	2591	135.831335244288	8
2	2598	136.389359369278	9
2	2615	138.600763475524	10
2	2627	139.188600491337	11
2	2645	140.694974512176	12
2	2649	140.816409606866	13
2	2652	140.965180069211	14
2	2677	143.289437737206	15
2	2691	144.599376269204	16
2	2704	146.035619857956	17
2	2723	148.022103847245	18
2	2758	151.236344716516	19
2	2769	151.732414516111	20
2	2782	153.259817110098	21
2	2846	158.689111045454	22
2	2879	161.381803622698	23
2	2884	162.08995280006	24
2	2897	163.33658888272	25
2	2899	163.473211298269	26
2	2921	165.658513385084	27
2	2934	166.724450073426	28
2	2948	167.370003604788	29
2	2994	171.403418326856	30
2	3005	172.619521358	31
2	3008	172.717064462051	32
2	3057	176.603254499114	33
2	3132	183.50366249306	34
2	3151	185.247731266022	35
2	3172	187.088546142488	36
2	3174	187.132823057054	37
2	3217	190.830467157342	38
2	3232	192.229894646446	39
2	3298	197.662391614994	40
2	3314	199.335104029968	41
2	3322	199.637321381332	42
2	3353	202.950134970489	43
2	3376	204.468948854891	44
2	3379	204.768345895852	45
2	3421	208.191960172934	46
2	3478	213.606035591051	47
2	3505	215.770980269604	48
2	3518	217.096478334444	49
2	3661	231.086988422808	50
2	3677	232.676827390415	51
2	3686	233.36068267811	52
2	3733	237.931508824338	53
2	3740	238.502031182068	54
2	3819	245.194741264871	55
2	3849	248.515470288618	56
2	3856	248.784728189984	57
2	3858	248.900707401677	58
2	3923	255.724309822811	59
2	3929	256.105127490284	60
2	3976	260.279658878337	61
2	4029	264.85078761212	62
2	4064	268.205371656488	63
2	4082	270.350014216147	64
2	4129	274.491470709774	65
2	4152	276.783446938691	66
2	4181	279.632819213732	67
2	4192	281.074667623382	68
2	4230	284.730555604519	69
2	4234	284.77416771769	70
2	4425	302.523974437852	71
2	4450	304.564824460898	72
2	4460	305.789692720399	73
2	4576	316.319261278339	74
2	4711	329.431289728391	75
2	5009	358.49521356774	76
2	5089	366.135488542034	77
2	5206	377.596548288497	78
2	5258	383.771011380832	79
2	5260	383.903451409955	80
2	5280	385.855628857742	81
2	5299	387.696273342656	82
2	5465	405.3414722068	83
2	5496	408.166531812682	84
2	5498	408.253762773794	85
2	5518	411.085378299799	86
2	5570	415.819959940558	87
2	5591	418.029589079447	88
2	5594	418.083085411281	89
2	5699	428.731925828514	90
2	5701	428.754242486682	91
2	5714	429.541960539208	92
2	5753	433.873274332472	93
2	5803	439.142222527161	94
2	5806	439.478895893917	95
2	5852	444.155971340388	96
2	5908	450.203549301152	97
2	5944	453.742448871616	98
2	6062	465.84269303782	99
2	6113	470.730928200981	100
2	6115	471.431174121434	101
2	6150	475.004062364136	102
2	6183	478.537128402292	103
2	6200	480.145410868094	104
2	6355	496.173350220278	105
2	6360	496.474170548578	106
2	6531	514.243669702636	107
2	6557	516.381063879199	108
2	6598	521.276198899758	109
2	6611	522.310499146772	110
2	6647	526.34391386884	111
2	6669	528.314706332166	112
2	6709	532.967122792995	113
2	6742	536.350045360138	114
2	6745	536.700244411632	115
2	6848	546.982941419548	116
2	6865	549.191002804257	117
2	6881	550.552229445131	118
2	6897	552.244108307872	119
2	6900	552.420723416082	120
2	6905	553.246834838435	121
2	6913	554.577816923316	122
2	6943	556.438392930068	123
2	6950	557.450083373502	124
2	6972	559.977939334258	125
2	6984	561.081798003071	126
2	7026	565.28342707546	127
2	7045	567.54833543538	128
2	7217	584.998719231275	129
2	7229	586.556182338321	130
2	7259	588.579749041956	131
2	7268	590.088043784779	132
2	7374	600.632757583914	133
2	7476	611.147180900659	134
2	7493	613.538923247667	135
2	7496	613.729640792771	136
2	7684	632.522657224147	137
2	7687	632.774113695802	138
2	7813	645.712883469372	139
2	7854	649.9551187897	140
2	7959	660.963408164354	141
2	8023	667.51342914122	142
2	8058	671.12304171826	143
2	8063	671.492976722294	144
2	8066	671.546843863288	145
2	8156	680.986147863634	146
2	8235	689.128499561092	147
2	8277	693.039156405592	148
2	8503	716.647442050162	149
2	8954	763.684070948957	150
2	8978	765.558847823301	151
2	8995	767.081001533824	152
2	9082	776.756696449905	153
2	9084	776.788662301694	154
2	9093	777.410216199298	155
2	9125	780.449041359124	156
2	9128	781.427885713284	157
2	9157	784.482456081192	158
2	9162	785.133377763427	159
2	9197	788.248924462384	160
2	9201	788.51587080326	161
2	9204	788.626321105574	162
2	9294	798.13057928962	163
2	9297	798.206003264375	164
2	9309	798.90901811349	165
2	9502	819.474412129322	166
2	9512	820.783188579804	167
2	9554	824.816603301872	168
2	9609	830.37996348608	169
2	9615	830.584770319504	170
2	9706	840.039806145154	171
2	9714	840.950262190144	172
2	9716	841.104616893315	173
2	9721	841.692928423074	174
2	10169	891.913670518581	175
2	10195	893.922632104892	176
2	10197	894.088539105184	177
2	10203	894.72788392949	178
2	10225	897.940301618878	179
2	10227	898.027991857151	180
2	10263	901.957971132864	181
2	10290	905.452537336725	182
2	10317	908.557560415091	183
2	10327	909.5183124653	184
2	10351	913.101524623955	185
2	10362	913.673053554914	186
2	10384	916.17719074396	187
2	10407	918.028649188808	188
2	10443	922.088299219492	189
2	10446	922.301382208482	190
2	10451	923.502376192401	191
2	10483	926.901844151195	192
2	10486	927.44273071244	193
2	10515	930.61860520474	194
2	10538	933.718800797708	195
2	10540	934.031944750341	196
2	10546	934.269447552515	197
2	10576	937.725427720356	198
2	10579	937.752215519776	199
2	10620	942.134666272724	200
2	10629	943.537606033962	201
2	10635	944.561513308281	202
2	10638	944.853409016795	203
2	10674	948.351150965665	204
2	10693	950.675834646851	205
2	10699	951.22860567516	206
2	10705	951.7865281333	207
2	10721	953.885874408048	208
2	10727	954.187674814682	209
2	10734	955.091081866221	210
2	10777	959.258507754392	211
2	10866	969.800457780135	212
2	10871	969.842469218672	213
2	10875	970.01953329632	214
2	10891	972.67791248963	215
2	10898	973.426850625472	216
2	10920	975.711566255667	217
2	10956	978.85621575202	218
2	10963	980.52511118737	219
2	10991	983.402565896865	220
2	10994	983.53841252614	221
2	11019	986.436219662902	222
2	11053	990.346700440556	223
2	11064	991.249764594605	224
2	11089	994.485987741352	225
2	11120	997.909602018434	226
2	11123	998.253436350796	227
2	11126	998.382039468528	228
2	11179	1004.56295827181	229
2	11184	1004.851872711335	230
2	11206	1007.885526477372	231
2	11215	1009.050918784423	232
2	11235	1010.353680517	233
2	11271	1014.845655279726	234
2	11273	1015.29029691898	235
2	11306	1018.610179884607	236
2	11334	1022.453924683204	237
2	11337	1022.488056552444	238
2	11369	1026.301179525805	239
2	11372	1026.487339405272	240
2	11378	1026.50572606643	241
2	11440	1034.541065094402	242
2	11443	1034.554168849408	243
2	11464	1036.604261973112	244
2	11496	1040.552397799516	245
2	11498	1040.639624458243	246
2	11524	1042.620998293544	247
2	11554	1046.654413015612	248
2	11561	1047.133830531052	249
2	11597	1051.169193016183	250
2	11621	1054.721242459748	251
2	11653	1057.663399088992	252
2	11655	1058.47513974751	253
2	11659	1058.647082178318	254
2	11662	1058.754657181816	255
2	11741	1066.821486625952	256
2	11743	1068.192967646932	257
2	11754	1069.199793154745	258
2	11777	1071.400488823264	259
2	11781	1072.228330132063	260
2	11877	1082.757898690003	261
2	11882	1082.958100328017	262
2	11943	1090.788438290206	263
2	11998	1096.148326573242	264
2	12003	1097.107231343054	265
2	12013	1098.496298666955	266
2	12028	1099.781673320752	267
2	12041	1101.37375337645	268
2	12072	1105.06546175374	269
2	12096	1107.38992835097	270
2	12103	1108.619363015951	271
2	12164	1114.894455374122	272
2	12169	1115.222463290768	273
2	12206	1119.255878012836	274
2	12261	1125.856713956957	275
2	12290	1129.678500131831	276
2	12315	1131.71387302606	277
2	12322	1133.09667087076	278
2	12343	1134.982802944052	279
2	12345	1135.364715373835	280
2	12416	1143.379367878676	281
2	12419	1143.456366345244	282
2	12459	1147.489781067312	283
2	12485	1151.053480999996	284
2	12500	1152.88179595462	285
2	12513	1153.662064886592	286
2	12525	1155.152884467081	287
2	12560	1159.590025233516	288
2	12687	1174.04971888318	289
2	12691	1174.227458902424	290
2	12700	1175.723684121788	291
2	12732	1179.368807406382	292
2	12734	1179.479980993132	293
2	12764	1183.194837111884	294
2	12782	1184.51015591034	295
2	12812	1188.255213683978	296
2	12871	1195.01817933207	297
2	12876	1195.247845653842	298
2	12879	1195.890757732128	299
2	12908	1199.924172454196	300
2	12911	1199.934201422214	301
2	12916	1200.32111493226	302
2	12942	1203.385480037411	303
2	12948	1203.957587176264	304
2	12979	1207.991001898332	305
2	13009	1211.318523709786	306
2	13014	1211.653941214837	307
2	13034	1214.119514052827	308
2	13048	1215.606927458092	309
2	13059	1216.3855647403	310
2	13062	1216.46748614654	311
2	13090	1220.091246064536	312
2	13093	1220.499595438046	313
2	13126	1224.444617153291	314
2	13129	1224.844167460062	315
2	13135	1225.640943942004	316
2	13150	1227.192139553775	317
2	13160	1228.158075508672	318
2	13196	1232.19149023074	319
2	13325	1247.195633131912	320
2	13343	1248.641446368245	321
2	13377	1252.35856384108	322
2	13407	1256.391978563148	323
2	13414	1257.018127681767	324
2	13450	1261.962193589558	325
2	13470	1264.458808007284	326
2	13500	1268.254770247792	327
2	13504	1268.492222729352	328
2	13614	1280.81540658995	329
2	13620	1282.195777485542	330
2	13679	1288.659296339692	331
2	13683	1289.313907363672	332
2	13705	1292.478474493458	333
2	13771	1299.843475921612	334
2	13774	1299.916741310707	335
2	13838	1308.175821879952	336
2	13859	1310.641394717942	337
2	13889	1313.04386850929	338
2	13921	1318.185217013248	339
2	13945	1320.902613037492	340
2	13949	1320.926614116236	341
2	13974	1323.813270101394	342
2	13983	1324.960028838304	343
2	14070	1334.438673626125	344
2	14132	1342.815354939647	345
2	14159	1345.127102448644	346
2	14164	1346.198742053078	347
2	14259	1356.728310611018	348
2	14266	1357.227346614848	349
2	14320	1363.989965241254	350
2	14325	1364.45735354887	351
2	14375	1369.598702052828	352
2	14392	1372.025304269226	353
2	14405	1373.36100550312	354
2	14407	1373.550455827192	355
2	14472	1381.427834947256	356
2	14481	1382.616966325592	357
2	14492	1384.078312811184	358
2	14500	1385.022747564702	359
2	14506	1385.461249669324	360
2	14508	1385.713968568587	361
2	14587	1395.305444572618	362
2	14590	1396.131321353142	363
2	14614	1398.846584842778	364
2	14621	1399.963751980835	365
2	14641	1401.66404877903	366
2	14665	1404.697702545067	367
2	14668	1405.139161501012	368
2	14674	1405.588141580534	369
2	14677	1405.628323279664	370
2	14712	1409.661738001732	371
2	14739	1413.976851196211	372
2	14867	1428.27267746503	373
2	14894	1431.294884100324	374
2	14896	1431.715636373675	375
2	14951	1437.895641056208	376
2	14983	1441.929055778276	377
2	15008	1445.565556870031	378
2	15018	1445.962470500344	379
2	15045	1449.23271695446	380
2	15056	1450.061889011997	381
2	15065	1451.860278116156	382
2	15071	1452.378694548946	383
2	15108	1456.396364062932	384
2	15128	1458.320969581242	385
2	15157	1462.096129388616	386
2	15160	1462.142975124072	387
2	15165	1463.134514512945	388
2	15167	1463.467520766515	389
2	15215	1469.045622988477	390
2	15221	1470.162958832752	391
2	15242	1472.467042118876	392
2	15250	1473.85916792018	393
2	15259	1474.19637355482	394
2	15347	1484.583821327415	395
2	15372	1487.683831101791	396
2	15376	1487.849717643862	397
2	15381	1488.53772017482	398
2	15458	1498.213399659731	399
2	15525	1505.803366623635	400
2	15567	1510.497106053432	401
2	15592	1513.556460163652	402
2	15618	1516.661406772722	403
2	15654	1520.679076286708	404
2	15695	1525.201407538058	405
2	15709	1527.482434956355	406
2	15766	1534.121854179484	407
2	15769	1534.69759438584	408
2	15859	1544.785093370624	409
2	15885	1548.80276288461	410
2	15913	1551.80919648032	411
2	15915	1551.960349754072	412
2	15918	1552.553121312172	413
2	15939	1554.86466799618	414
2	15954	1556.838101912582	415
2	15971	1558.723173945035	416
2	15975	1558.898082718248	417
2	15977	1559.65639517806	418
2	15983	1559.828596699274	419
2	16010	1562.931497440316	420
2	16012	1563.082689870112	421
2	16062	1569.307135409315	422
2	16066	1570.11129370719	423
2	16128	1576.926449482512	424
2	16211	1587.016810468062	425
2	16215	1587.131985772724	426
2	16246	1590.676687723022	427
2	16249	1591.165400494792	428
2	16274	1594.671395543932	429
2	16277	1594.70781010926	430
2	16286	1595.19881521686	431
2	16302	1597.40817745438	432
2	16367	1604.880157075472	433
2	16371	1605.050136080414	434
2	16375	1605.637555981311	435
2	16425	1613.085475108386	436
2	16445	1615.395302649055	437
2	16453	1616.383430242812	438
2	16482	1619.967524559518	439
2	16510	1623.097503136612	440
2	16516	1623.432718271336	441
2	16535	1626.11995605629	442
2	16546	1626.666127250728	443
2	16566	1629.915424097002	444
2	16569	1630.497093117458	445
2	16599	1633.173822678316	446
2	16601	1633.822156543847	447
2	16628	1636.948824258644	448
2	16631	1637.191492192302	449
2	16663	1641.209161706288	450
2	16775	1655.70003604788	451
2	16799	1658.293916277995	452
2	16833	1662.655566778434	453
2	16874	1667.800280214084	454
2	16879	1668.378375449512	455
2	16882	1668.383925861152	456
2	16885	1669.01856968523	457
2	16889	1669.33284830419	458
2	16972	1678.967887325432	459
2	16981	1679.743223092465	460
2	16985	1679.900524380288	461
2	17013	1683.933939102356	462
2	17055	1689.42119587412	463
2	17064	1690.4678764997	464
2	17125	1698.275202260591	465
2	17147	1700.067597990628	466
2	17157	1701.192529906935	467
2	17188	1704.987997947647	468
2	17218	1708.927703314056	469
2	17272	1715.712651354882	470
2	17352	1725.263210138918	471
2	17391	1729.59789101398	472
2	17393	1729.863907934411	473
2	17399	1730.344037208962	474
2	17421	1733.36649012864	475
2	17424	1733.615560527966	476
2	17452	1737.161958169352	477
2	17482	1741.068690616197	478
2	17585	1752.614923913032	479
2	17591	1753.703908097896	480
2	17602	1755.199839849678	481
2	17625	1757.721577611882	482
2	17657	1761.739247125868	483
2	17684	1765.482536857594	484
2	17686	1765.540450350345	485
2	17739	1772.669062987852	486
2	17761	1773.792255667826	487
2	17770	1775.76523386551	488
2	17775	1776.26510375758	489
2	17828	1782.511750724111	490
2	17856	1786.047930873426	491
2	17888	1789.86293372377	492
2	17893	1790.785225205527	493
2	17950	1796.86955132026	494
2	17958	1797.898272751742	495
3	0	0	0
3	157	2	5
3	161	2	4
3	166	5.552977140429	5
3	167	5.552977140429	6
3	184	7.141348503958	5
3	188	9.105954280858	6
3	195	10.035339027972	5
3	198	10.066829444136	4
3	203	10.694325644387	5
3	219	12.58396146428	4
3	223	13.588316168401	5
3	226	13.619806584565	6
3	234	14.100244166204	5
3	235	14.247302784816	6
3	240	14.707648994303	5
3	250	15.836635250423	4
3	252	16.082545698369	3
3	254	16.136938604709	4
3	256	16.277630547664	3
3	270	17.14129330883	4
3	281	17.653221306633	5
3	284	17.866001911193	4
3	290	18.070678055944	3
3	296	18.133658888272	2
3	297	18.260626134732	3
3	305	19.28498492124	4
3	308	19.389612390852	5
3	311	19.635522838798	6
3	312	19.635522838798	5
3	314	19.689915745138	6
3	317	19.830607688093	5
3	326	20.619300492252	4
3	331	20.694270449259	5
3	333	20.881959921965	4
3	339	21.206198447062	5
3	345	21.418979051622	6
3	347	21.623655196373	5
3	350	21.686636028701	6
3	351	21.813603275161	5
3	362	22.16707361034	4
3	371	22.565394015832	3
3	372	22.837962061669	4
3	373	22.942589531281	5
3	383	23.188499979227	6
3	385	23.383584828522	5
3	392	23.862320848177	6
3	394	24.117884726341	5
3	395	24.172277632681	6
3	399	24.247247589688	5
3	403	24.434937062394	6
3	409	24.759175587491	5
3	417	25.176632336802	6
3	418	25.36658041559	5
3	427	25.720050750769	6
3	432	26.106017083916	5
3	433	26.118371156261	6
3	445	26.390939202098	5
3	449	26.49556667171	6
3	453	26.612114256309	5
3	460	26.936561968951	6
3	474	27.378113757837	5
3	479	27.67086186677	6
3	483	27.70674251979	5
3	486	27.800224730117	6
3	490	27.865946716065	5
3	496	28.026642741407	4
3	501	28.148698919109	3
3	502	28.31215272792	4
3	505	28.377874713868	3
3	507	28.439656775114	4
3	525	28.919557556019	5
3	534	29.658994224345	6
3	540	29.943916342527	5
3	550	30.165091396738	6
3	554	30.233903054476	5
3	568	30.931090898266	6
3	574	31.203261956532	5
3	576	31.259719660219	6
3	581	31.418923856494	5
3	583	31.579619881836	6
3	584	31.701676059538	5
3	590	31.865129868349	6
3	594	31.930851854297	5
3	595	31.992633915543	6
3	599	32.213808969754	5
3	601	32.472534696448	6
3	613	32.848091023748	5
3	615	33.016992702051	6
3	627	33.496893482956	5
3	638	33.786880194905	6
3	644	34.141356111888	5
3	652	34.267317776544	4
3	655	34.647453284281	3
3	657	34.756239096961	4
3	666	34.971900996923	5
3	673	35.254653199967	6
3	678	35.416248192625	5
3	679	35.483828994726	6
3	682	35.766786110183	5
3	691	36.401068164177	6
3	705	37.049870623385	5
3	709	37.285942064893	4
3	715	37.694333252317	5
3	718	37.820294916973	6
3	723	37.989439527706	5
3	729	38.159025625874	4
3	730	38.20043042471	5
3	736	38.30921623739	6
3	745	38.524878137352	5
3	756	38.969225333054	6
3	757	38.969225333054	5
3	765	39.319763250612	6
3	775	39.431122299795	5
3	788	40.602847763814	6
3	796	40.838919205322	5
3	798	41.247310392746	6
3	802	41.542416668135	5
3	804	41.712002766303	6
3	805	41.753407565139	5
3	813	42.077855277781	6
3	814	42.171664555925	5
3	817	42.17669513986	4
3	821	42.33414722068	3
3	830	42.522202473483	4
3	836	42.984099440224	5
3	839	43.002103254388	4
3	845	43.130788031664	3
3	851	43.494086253857	2
3	856	43.786775534984	1
3	864	44.391896345751	2
3	873	44.951795830876	1
3	875	45.095393808564	2
3	879	45.306384705568	3
3	893	45.724641696354	4
3	895	45.729672280289	5
3	898	45.887124361109	6
3	901	45.945816750565	5
3	903	46.075179613912	6
3	913	46.537076580653	5
3	914	46.555080394817	6
3	915	46.683765172093	5
3	922	46.749000482862	6
3	930	47.047063394286	5
3	932	47.259625448288	4
3	936	47.339752675413	5
3	951	47.94487348618	6
3	956	48.272136535622	5
3	962	48.504772971305	6
3	965	48.648370948993	5
3	970	48.714092934941	4
3	974	48.859361845997	5
3	982	49.277618836783	6
3	984	49.282649420718	5
3	987	49.498793890994	6
3	988	49.498793890994	5
3	1004	50.039962132898	4
3	1006	50.090053721082	5
3	1011	50.236742312522	6
3	1020	50.400976664816	5
3	1022	50.600040534715	6
3	1028	50.812602588717	5
3	1031	50.892729815842	6
3	1034	51.291609526462	5
3	1037	51.293040170356	4
3	1038	51.326336409799	5
3	1046	51.825113676051	6
3	1051	52.201348089422	5
3	1053	52.26707007537	6
3	1057	52.412338986426	5
3	1062	52.835626561147	6
3	1067	53.051771031423	5
3	1070	53.180417368679	4
3	1073	53.41348503958	3
3	1077	53.592939273327	4
3	1079	53.643030861511	5
3	1086	53.953953805245	6
3	1096	54.365579729146	5
3	1101	54.844586666891	6
3	1102	54.846017310785	5
3	1103	54.879313550228	6
3	1108	54.9198073214	5
3	1122	55.326454892424	4
3	1125	55.754325229851	5
3	1129	55.965316126855	6
3	1135	56.292399211867	5
3	1139	56.604748171852	6
3	1142	56.733394509108	5
3	1151	56.933135809196	4
3	1153	56.966462180009	5
3	1154	57.145916413756	6
3	1156	57.19600800194	5
3	1166	57.681107089538	4
3	1170	57.918556869575	5
3	1180	58.247373195804	4
3	1181	58.398994451214	5
3	1189	58.467806108952	4
3	1190	58.472784461829	5
3	1193	58.498012676605	4
3	1199	58.554833543538	3
3	1203	58.669526893415	2
3	1208	58.879432032853	3
3	1218	59.30730237028	4
3	1226	59.807187394723	3
3	1228	59.845376352296	4
3	1241	60.286371649537	5
3	1244	60.322659140814	4
3	1247	60.481008263673	5
3	1249	60.486112949625	6
3	1251	60.519439320438	5
3	1253	60.748985142369	6
3	1266	61.234084229967	5
3	1270	61.471534010004	6
3	1278	61.800350336233	5
3	1284	61.951971591643	6
3	1286	62.020783249381	5
3	1287	62.025761602258	6
3	1288	62.050989817034	5
3	1289	62.107810683967	6
3	1290	62.222504033844	5
3	1294	62.432409173282	6
3	1299	62.516362898243	5
3	1303	62.860279510709	6
3	1315	63.324472678822	5
3	1318	63.360164535152	6
3	1320	63.398353492725	5
3	1324	63.696182047496	4
3	1325	63.839348789966	5
3	1326	63.875636281243	6
3	1331	64.033985404102	5
3	1334	64.072416460867	6
3	1342	64.367684268746	5
3	1350	64.787061370396	6
3	1358	64.963959944824	5
3	1362	65.353327476662	6
3	1367	65.57376038981	5
3	1368	65.603966957463	6
3	1373	65.775481174273	5
3	1379	66.069340038672	6
3	1386	66.282712223776	5
3	1391	66.534635553088	4
3	1393	66.590326009162	3
3	1398	66.877449819251	4
3	1401	66.951330633154	5
3	1407	67.249159187925	6
3	1415	67.392325930395	5
3	1417	67.524486428382	4
3	1418	67.586962544531	5
3	1427	67.920661409175	6
3	1434	68.516937085253	5
3	1437	68.740326584619	4
3	1442	68.837530551454	3
3	1446	69.126737530239	4
3	1457	69.328458314702	5
3	1460	69.563910087185	4
3	1466	69.835689364205	5
3	1471	70.087612693517	6
3	1474	70.143303149591	5
3	1479	70.43042695968	6
3	1484	70.504307773583	5
3	1488	70.568050275156	4
3	1498	70.945303070824	5
3	1502	71.077463568811	6
3	1505	71.13993968496	5
3	1507	71.14198045337	4
3	1521	71.745675700585	3
3	1529	72.069914225682	4
3	1530	72.293303725048	5
3	1533	72.390507691883	6
3	1536	72.679714670668	5
3	1540	72.881435455131	6
3	1542	73.116887227614	5
3	1546	73.388666504634	6
3	1552	73.69628029002	5
3	1559	73.978879055412	4
3	1562	74.057284914012	5
3	1569	74.498280211253	6
3	1575	74.601464997224	5
3	1580	74.692916825389	6
3	1605	75.622891366111	5
3	1609	75.846280865477	6
3	1613	76.232691811097	5
3	1616	76.669864368043	6
3	1630	77.249257430449	5
3	1632	77.318377954109	4
3	1635	77.610262054441	5
3	1639	78.154442137653	6
3	1642	78.205053529636	5
3	1645	78.335720765734	4
3	1652	78.634879719292	3
3	1660	79.17586850654	4
3	1675	79.785668951526	5
3	1685	79.831741466894	4
3	1689	79.947319491075	3
3	1699	80.802234570878	4
3	1707	81.16323919487	5
3	1718	81.758030670065	6
3	1725	82.275244258525	5
3	1729	82.35339027972	4
3	1733	82.66829444136	3
3	1734	82.728845646969	4
3	1745	83.338646091955	5
3	1761	84.261576063328	4
3	1764	84.355211711307	5
3	1770	84.703532462647	4
3	1772	84.716216335299	5
3	1775	85.203319843999	4
3	1778	85.222485383329	3
3	1785	85.766943388932	2
3	1788	85.828221398954	3
3	1798	86.281822787398	4
3	1802	86.371059793706	3
3	1809	86.701709163428	2
3	1810	86.891623232384	3
3	1814	87.096200447549	2
3	1820	87.908188851736	3
3	1826	88.269193475728	4
3	1836	89.101991344949	3
3	1842	89.369968223645	2
3	1844	89.381198539383	3
3	1848	89.402924567286	2
3	1850	89.834799927827	3
3	1854	89.844880966605	2
3	1857	89.999257588644	1
3	1866	90.388729307692	0
3	1867	90.444600372813	1
3	1879	91.461165992165	2
3	1891	91.822170616157	3
3	1909	92.934175679812	4
3	1912	93.387777068256	5
3	1917	93.453499054204	4
3	1924	93.997577513242	5
3	1932	94.544273071244	4
3	1935	94.768538607564	3
3	1937	94.787779891106	2
3	1941	95.014143132594	3
3	1948	95.079865118542	2
3	1955	95.375147756586	3
3	1959	95.752053941269	2
3	1967	96.357789956894	1
3	1973	96.487152820241	2
3	1979	96.940754208685	3
3	1986	97.550554653671	4
3	1998	98.567120273023	5
3	2009	98.801953329632	4
3	2012	98.928124897015	5
3	2015	98.993846882963	4
3	2018	99.125290854859	3
3	2025	99.685621575202	2
3	2030	99.965160003663	1
3	2032	100.04012996067	2
3	2036	100.493731349114	3
3	2045	101.1035317941	4
3	2065	102.120097413452	5
3	2078	102.481102037444	6
3	2087	102.8353680517	5
3	2089	102.864155053006	4
3	2096	103.593107101099	5
3	2105	103.974179199499	4
3	2106	104.046708489543	5
3	2109	104.07628709668	4
3	2114	104.656508934529	5
3	2127	105.559969613426	4
3	2129	105.673074553881	5
3	2141	106.388345192129	6
3	2161	107.146084241528	5
3	2167	107.472816580546	4
3	2168	107.599685629972	5
3	2180	108.209486074958	6
3	2189	109.22605169431	5
3	2194	109.718500290198	4
3	2198	109.968318583118	3
3	2204	110.699061381957	4
3	2218	111.152662770401	5
3	2237	112.007712404192	4
3	2244	112.779028834739	5
3	2256	113.993312795692	4
3	2264	114.252038522386	5
3	2275	114.576277047483	4
3	2281	114.70563991083	5
3	2286	114.935612217904	4
3	2289	115.109667087076	3
3	2303	115.846917006986	2
3	2307	116.332005975168	3
3	2315	116.435536285033	2
3	2328	117.805015662815	3
3	2336	118.258617051259	4
3	2342	118.512415905594	3
3	2349	118.969026939972	2
3	2357	119.884983115597	3
3	2366	120.251015591034	2
3	2371	120.574597669329	1
3	2380	121.357992803244	2
3	2387	121.811594191688	3
3	2390	121.932984989689	2
3	2392	122.121514808646	1
3	2396	122.53008541958	0
3	2417	123.437960256026	1
3	2421	123.503682241974	0
3	2436	124.910969943673	1
3	2442	125.364571332117	2
3	2446	125.392364094992	1
3	2468	126.990937396455	2
3	2472	127.035856384108	1
3	2490	128.382148838262	0
3	2492	128.463947084102	1
3	2496	128.917548472546	2
3	2499	129.11471443039	1
3	2509	129.966220743809	0
3	2522	130.543914536884	1
3	2529	130.955237541091	0
3	2536	132.016924224531	1
3	2544	132.462553547629	0
3	2546	132.470525612975	1
3	2560	133.747011552717	0
3	2563	134.096891677313	1
3	2569	134.583093961538	0
3	2582	135.56990136496	1
3	2586	135.675061102908	0
3	2593	136.023502753404	1
3	2596	136.1549467253	0
3	2609	137.649868817742	1
3	2612	137.781312789638	0
3	2621	139.122878505389	1
3	2625	139.136100550312	0
3	2632	139.576479893833	1
3	2635	139.642201879781	0
3	2654	141.202845958171	1
3	2663	142.61843298951	0
3	2666	142.675855645818	1
3	2669	142.992122105569	0
3	2671	143.129457034262	1
3	2675	143.16951527238	0
3	2693	144.7558230986	1
3	2702	145.957758110824	0
3	2705	146.228832786247	1
3	2710	146.636102503496	0
3	2711	146.682434174691	1
3	2719	147.202929994448	0
3	2728	148.308800239029	1
3	2737	149.781809926676	2
3	2742	149.913253898572	1
3	2744	150.185463721682	0
3	2746	150.23541131512	1
3	2752	150.653772017482	0
3	2770	151.861777379458	1
3	2776	152.748557891034	0
3	2784	153.334787067105	1
3	2787	153.788388455549	2
3	2810	155.269759438584	1
3	2811	155.414754519887	2
3	2819	156.24045511874	1
3	2822	156.887764207534	2
3	2828	156.999258172848	1
3	2830	157.341365595978	2
3	2837	157.60425353977	1
3	2842	158.551672405185	0
3	2849	158.967731660316	1
3	2861	159.303174160652	0
3	2863	160.440741347963	1
3	2868	160.637907305807	0
3	2873	160.894342736407	1
3	2876	161.091508694251	0
3	2890	162.520708800745	1
3	2894	162.70678055944	0
3	2905	163.993718488392	1
3	2908	164.188594150142	0
3	2910	164.447319876836	1
3	2916	165.024005699817	0
3	2923	166.073685941174	1
3	2931	166.523152126656	0
3	2949	167.546695628821	1
3	2953	168.000297017265	2
3	2959	168.328906947005	1
3	2968	169.567972012166	0
3	2970	169.626663081603	1
3	2974	169.955273011343	0
3	2985	171.09967276925	1
3	2991	171.362560713042	0
3	2995	171.553274157694	1
3	2999	171.664500630614	0
3	3016	173.179640222032	1
3	3027	174.652649909679	2
3	3030	174.718162708082	1
3	3034	174.759789101398	0
3	3037	175.106251298123	1
3	3050	176.176105644745	0
3	3058	176.732617362461	1
3	3063	176.805849134572	0
3	3069	178.205627050108	1
3	3074	178.659228438552	2
3	3089	179.470247770992	1
3	3095	180.28559450289	2
3	3101	180.679926418578	1
3	3107	181.758604190537	2
3	3110	181.890997854609	1
3	3114	181.94719763853	0
3	3117	182.212205578981	1
3	3127	182.79512812937	0
3	3135	183.838571643319	1
3	3145	185.011701502938	0
3	3153	185.311581330966	1
3	3160	185.76518271941	2
3	3167	186.812797643356	1
3	3169	186.90075905198	0
3	3176	187.391548783748	1
3	3190	188.864558471395	2
3	3196	189.059434133145	1
3	3198	189.318159859839	2
3	3207	189.778213761475	1
3	3213	190.598992486956	0
3	3218	190.944525924177	1
3	3224	191.570491937196	0
3	3235	192.417535611824	1
3	3238	192.420566412549	0
3	3243	192.871137000268	1
3	3258	194.497503064606	2
3	3262	194.848136671328	1
3	3275	195.647171519974	0
[...]
11	4307	291.272205006992	0
11	4352	295.511493264053	1
11	4362	296.439274710964	0
11	4393	299.83046990601	1
11	4412	301.072985403362	0
11	4443	304.149446547967	1
11	4448	304.5061041551	0
11	4487	308.468423189924	1
11	4526	311.602553961302	0
11	4539	312.787399831881	1
11	4582	316.606348321304	0
11	4586	317.106376473838	1
11	4631	321.425353115795	2
11	4653	323.41356111888	1
11	4673	325.744329757752	2
11	4693	327.431230632866	1
11	4715	330.063306399709	2
11	4751	332.98864158433	1
11	4756	333.846536947761	0
11	4757	334.382283041666	1
11	4762	334.546782868214	0
11	4805	338.701259683623	1
11	4810	339.484239174824	0
11	4847	343.02023632558	1
11	4852	343.50190868881	0
11	4888	347.339212967537	1
11	4940	351.658189609494	2
11	4945	352.182305707012	1
11	4952	352.907080819916	0
11	4984	355.977166251451	1
11	5028	360.296142893408	2
11	5036	360.973910264052	1
11	5049	362.735528481395	0
11	5071	364.615119535365	1
11	5102	367.607925772726	0
11	5112	368.934096177322	1
11	5134	371.549563960151	0
11	5156	373.253072819279	1
11	5160	373.319489945675	0
11	5202	377.572049461236	1
11	5216	379.496672625979	0
11	5236	381.891026103193	1
11	5243	382.079132518091	0
11	5283	386.21000274515	1
11	5311	389.207813318528	0
11	5317	390.528979387107	1
11	5339	391.713942856642	0
11	5363	394.847956029064	1
11	5408	399.166932671021	2
11	5446	403.485909312978	3
11	5474	406.52400511126	2
11	5491	407.804885954935	3
11	5527	411.802290426572	2
11	5533	412.123862596892	3
11	5554	413.667838191911	2
11	5564	415.359717054652	1
11	5576	416.442839238849	2
11	5588	417.810273212584	1
11	5604	418.783331331734	0
11	5618	420.761815880806	1
11	5655	425.080792522763	2
11	5696	428.612653969221	1
11	5709	429.39976916472	2
11	5747	433.575375261276	1
11	5748	433.718745806677	2
11	5792	438.037722448634	3
11	5797	438.978196141144	2
11	5813	439.925977024474	1
11	5832	442.356699090591	2
11	5861	445.256543865731	1
11	5868	446.675675732548	2
11	5884	447.961316052446	1
11	5922	450.994652374505	2
11	5948	454.138324691458	1
11	5957	455.313629016462	2
11	5999	459.632605658419	3
11	6015	460.901605563494	2
11	6034	463.733221089499	1
11	6035	463.951582300376	2
11	6072	468.007559844352	1
11	6079	468.270558942333	2
11	6083	468.575143124195	1
11	6127	472.58953558429	2
11	6169	476.908512226247	3
11	6189	479.159104588475	2
11	6197	480.102672164334	1
11	6212	481.227488868204	2
11	6223	481.960742679374	1
11	6226	481.976351926092	0
11	6251	485.546465510161	1
11	6257	485.890209084298	0
11	6291	489.865442152118	1
11	6308	491.1956968255	0
11	6334	494.184418794075	1
11	6368	497.904386655431	0
11	6378	498.503395436032	1
11	6407	501.77965828978	0
11	6419	502.822372077989	1
11	6463	507.141348719946	2
11	6504	511.460325361903	3
11	6528	513.549448353194	2
11	6545	515.77930200386	3
11	6561	517.642093477138	2
11	6588	520.098278645817	3
11	6595	520.655402634052	2
11	6602	521.494950445595	1
11	6616	522.94758121834	0
11	6633	524.417255287774	1
11	6656	526.910632437139	0
11	6675	528.736231929731	1
11	6713	533.055208571688	2
11	6719	533.53154268262	1
11	6734	534.608585469074	0
11	6751	537.374185213645	1
11	6754	537.440200995079	0
11	6791	541.693161855602	1
11	6830	545.138154027014	0
11	6831	546.012138497559	1
11	6875	550.331115139516	2
11	6914	554.650091781473	3
11	6957	558.499338110959	2
11	6964	558.96906842343	3
11	7001	562.644646367452	2
11	7003	562.773676865812	1
11	7007	563.288045065387	2
11	7011	563.830796302715	1
11	7048	567.607021707344	2
11	7061	569.028906668899	1
11	7080	570.711475811588	0
11	7088	571.925998349301	1
11	7127	576.026613780381	0
11	7131	576.244974991258	1
11	7174	580.563951633215	2
11	7189	582.140935118951	1
11	7192	582.811719977792	0
11	7213	584.882928275172	1
11	7247	587.256428258774	0
11	7263	589.201904917129	1
11	7304	593.520881559086	2
11	7337	597.085750896261	1
11	7344	597.737618105344	0
11	7349	597.839858201043	1
11	7382	602.158834843	2
11	7386	602.313785191378	1
11	7395	602.978793588132	0
11	7424	606.477811484957	1
11	7433	607.0122083102	0
11	7467	610.796788126914	1
11	7507	615.079037754336	0
11	7508	615.115764768871	1
11	7532	616.703435639858	0
11	7565	619.434741410828	1
11	7572	620.721105153844	0
11	7595	623.753718052785	1
11	7602	624.259209350711	0
11	7638	628.072694694742	1
11	7680	632.391671336699	2
11	7699	634.065669584218	1
11	7716	636.480656771392	0
11	7719	636.710647978656	1
11	7755	639.904271048474	0
11	7772	641.029624620613	1
11	7809	645.34860126257	2
11	7837	648.502488016955	1
11	7846	649.667577904527	2
11	7857	650.433839606414	1
11	7887	653.986554546484	2
11	7899	655.233592512778	1
11	7910	655.847915024531	0
11	7925	658.305531188441	1
11	7957	660.897800293704	0
11	7977	662.624507830398	1
11	7986	663.795023690359	0
11	8014	666.943484472355	1
11	8031	668.069362445212	0
11	8060	671.262461114312	1
11	8079	672.950808835662	0
11	8104	675.581437756269	1
11	8113	676.401515441338	0
11	8140	679.900414398226	1
11	8160	681.322299359781	0
11	8187	684.219391040183	1
11	8223	688.53836768214	2
11	8256	691.713917473628	1
11	8264	692.29096464682	0
11	8267	692.857344324097	1
11	8297	695.747332195696	0
11	8312	697.176320966054	1
11	8351	701.422295338355	0
11	8352	701.495297608011	1
11	8397	705.814274249968	2
11	8401	705.913297922119	1
11	8417	707.8475763619	0
11	8436	710.133250891925	1
11	8440	710.187636676972	0
11	8480	714.452227533882	1
11	8522	718.771204175839	2
11	8532	719.947820528104	1
11	8560	723.090180817796	2
11	8566	723.440573591541	1
11	8577	723.981235250172	0
11	8607	727.409157459753	1
11	8614	728.01464997224	0
11	8641	731.72813410171	1
11	8686	736.047110743667	2
11	8731	740.366087385624	3
11	8736	741.251190573424	2
11	8738	741.776342350792	1
11	8774	744.685064027581	2
11	8814	749.004040669538	3
11	8819	749.286529601396	2
11	8834	750.614032045991	1
11	8857	753.304199115382	0
11	8858	753.323017311495	1
11	8881	755.7947334325	0
11	8902	757.641993953452	1
11	8928	761.143600603931	0
11	8942	761.960970595409	1
11	8984	766.259093743754	0
11	8985	766.279947237366	1
11	9020	770.598923879323	2
11	9033	771.673169161871	1
11	9055	773.392546685312	0
11	9063	774.91790052128	1
11	9090	776.96265636106	0
11	9104	779.236877163237	1
11	9151	783.555853805194	2
11	9168	785.44555522727	1
11	9186	787.318230859634	0
11	9193	787.874830447151	1
11	9223	790.149846385639	0
11	9229	792.193807089108	1
11	9244	792.825091548418	0
11	9272	796.512783731065	1
11	9282	796.677948516875	0
11	9323	800.831760373022	1
11	9329	801.516233283214	0
11	9366	805.150737014979	1
11	9407	809.469713656936	2
11	9442	813.788690298893	3
11	9464	815.483322256372	2
11	9488	818.10766694085	3
11	9506	820.000808855224	2
11	9532	822.426643582807	3
11	9544	824.576975941258	2
11	9573	826.745620224764	3
11	9595	829.436505091394	2
11	9617	831.064596866721	3
11	9643	833.657589395102	2
11	9645	834.850580509511	1
11	9655	835.160937405538	0
11	9656	835.383573508678	1
11	9669	836.542459372252	0
11	9698	839.702550150635	1
11	9708	840.46642514674	0
11	9734	844.021526792592	1
11	9741	844.983676912212	0
11	9769	848.340503434549	1
11	9811	851.752693248064	0
11	9814	852.659480076506	1
11	9854	856.978456718463	2
11	9897	861.025210765214	1
11	9903	861.29743336042	2
11	9937	865.616410002377	3
11	9945	865.79894550699	2
11	9947	866.439286183331	1
11	9961	868.131165046072	0
11	9976	869.935386644334	1
11	9988	870.854533402701	0
11	10017	874.254363286291	1
11	10037	876.968854741271	0
11	10050	878.573339928248	1
11	10054	878.660733604012	0
11	10095	882.892316570205	1
11	10129	887.211293212162	2
11	10133	887.498423299211	1
11	10163	891.530269854119	2
11	10210	895.849246496076	3
11	10247	899.719870719892	2
11	10248	900.168223138033	3
11	10265	902.443239076521	2
11	10285	904.48719977999	3
11	10288	904.672500569464	2
11	10294	905.484897743232	1
11	10318	908.806176421947	2
11	10353	913.125153063904	3
11	10381	915.256462033744	2
11	10396	917.444129705861	3
11	10414	919.087128973031	2
11	10417	919.832629119778	1
11	10430	921.763106347818	2
11	10473	926.082082989775	3
11	10490	927.506623361552	2
11	10503	929.616697530971	1
11	10512	930.401059631732	2
11	10544	934.099327244752	1
11	10550	934.720036273689	2
11	10585	938.116996758738	1
11	10595	939.039012915646	2
11	10599	940.146266088911	1
11	10626	943.357989557603	2
11	10661	946.30603978954	1
11	10662	947.67696619956	2
11	10707	951.995942841517	3
11	10739	955.791327786674	2
11	10743	956.314919483474	3
11	10752	956.89000125382	2
11	10786	960.633896125431	3
11	10790	961.205403204791	2
11	10799	962.223013842654	1
11	10801	962.37048959758	0
11	10821	964.952872767388	1
11	10835	966.24068335664	0
11	10863	969.271849409345	1
11	10899	973.590826051302	2
11	10926	976.150218982101	1
11	10930	976.850464902554	0
11	10941	977.909802693259	1
11	10979	982.228779335216	2
11	10997	983.956419183412	1
11	11020	986.547755977173	2
11	11023	986.679787540041	1
11	11027	987.189254873915	0
11	11057	990.86673261913	1
11	11073	992.794108878611	0
11	11095	995.185709261087	1
11	11133	999.22584711094	0
11	11137	999.504685903044	1
11	11166	1003.823662545001	2
11	11181	1004.7063354547	1
11	11207	1008.142639186958	2
11	11210	1008.357177802475	1
11	11238	1010.435048010486	0
11	11244	1012.461615828915	1
11	11289	1016.780592470872	2
11	11314	1019.580487342363	1
11	11329	1021.099569112829	2
11	11357	1025.418545754786	3
11	11388	1028.798061771801	2
11	11396	1029.737522396743	3
11	11408	1030.52075412734	2
11	11433	1034.0564990387	3
11	11477	1038.375475680657	4
11	11482	1038.558734608388	3
11	11525	1042.694452322614	4
11	11540	1045.441951668311	3
11	11555	1047.013428964571	4
11	11576	1049.857198887681	3
11	11585	1050.68782773768	2
11	11587	1050.693023659595	1
11	11598	1051.332405606528	2
11	11615	1054.514160932912	1
11	11632	1055.651382248485	2
11	11672	1059.970358890442	3
11	11694	1062.664751692304	2
11	11713	1064.289335532399	3
11	11746	1068.21010424038	2
11	11750	1068.608312174356	3
11	11765	1070.700090720276	2
11	11787	1072.927288816313	3
11	11822	1077.030657342131	2
11	11828	1077.24626545827	3
11	11859	1081.565242100227	4
11	11872	1082.444908052435	3
11	11875	1082.753099262234	2
11	11880	1082.955145514224	1
11	11898	1085.884218742184	2
11	11909	1086.77076877622	1
11	11922	1087.560225900071	0
11	11936	1090.203195384141	1
11	11948	1091.02197495836	0
11	11982	1094.522172026098	1
11	12020	1098.823777318178	0
11	12021	1098.841148668055	1
11	12030	1099.96198863322	0
11	12057	1103.160125310012	1
11	12099	1107.479101951969	2
11	12121	1110.311241878692	1
11	12132	1111.798078593926	2
11	12171	1115.64942321802	1
11	12177	1116.117055235883	2
11	12215	1120.43603187784	3
11	12219	1120.840810436632	2
11	12251	1124.755008519797	3
11	12256	1124.876172921763	2
11	12287	1129.073985161754	3
11	12323	1133.392961803711	4
11	12349	1135.389536901108	3
11	12355	1136.81734614658	2
11	12363	1137.711938445668	3
11	12376	1139.000472458038	2
11	12385	1139.422951623176	1
11	12387	1140.208068689771	0
11	12403	1142.030915087625	1
11	12436	1145.948676838115	0
11	12444	1146.349891729582	1
11	12449	1147.03581148601	0
11	12475	1150.668868371539	1
11	12516	1154.987845013496	2
11	12536	1156.532638302395	1
11	12555	1159.306821655453	2
11	12591	1163.106489541954	1
11	12596	1163.623439955584	0
11	12597	1163.62579829741	1
11	12618	1167.116599766675	0
11	12628	1167.944774939367	1
11	12667	1172.263751581324	2
11	12709	1176.582728223281	3
11	12743	1180.901704865238	4
11	12750	1181.521698504272	3
11	12758	1182.326342921531	2
11	12789	1185.220681507195	3
11	12816	1189.539658149152	4
11	12842	1191.85734301006	3
11	12855	1193.858634791109	4
11	12893	1198.177611433066	5
11	12900	1198.784782241918	4
11	12929	1202.496588075023	5
11	12961	1205.80160327602	4
11	12972	1206.81556471698	5
11	13005	1211.134541358937	6
11	13027	1213.273582897112	5
11	13064	1217.592559539069	6
11	13101	1221.48903786082	5
11	13117	1223.857544361392	4
11	13136	1225.808014502777	5
11	13173	1230.126991144734	6
11	13179	1230.620368552355	5
11	13191	1231.406871279716	4
11	13212	1234.441505825672	3
11	13213	1234.939345194312	4
11	13231	1236.224904952808	3
11	13251	1239.258321836269	4
11	13261	1240.258319674876	3
11	13273	1240.903056473678	2
11	13292	1243.577298478226	3
11	13311	1245.503754269171	2
11	13334	1247.896275120183	3
11	13361	1251.432625031618	2
11	13372	1252.21525176214	3
11	13397	1256.033322827111	2
11	13411	1256.534228404097	3
11	13416	1257.725201689852	2
11	13438	1260.425393285216	1
11	13442	1260.853205046054	2
11	13466	1263.82488371794	1
11	13473	1265.172181688011	2
11	13514	1269.491158329968	3
11	13541	1272.52563745142	2
11	13552	1273.810134971925	3
11	13563	1275.601235933562	2
11	13573	1276.559052173488	1
11	13581	1277.092459942991	0
11	13585	1278.129111613882	1
11	13621	1282.448088255839	2
11	13635	1283.636574961534	1
11	13652	1286.767064897796	2
11	13695	1291.086041539753	3
11	13708	1292.69271106176	2
11	13718	1293.550899263378	1
11	13727	1295.40501818171	2
11	13755	1297.945274611352	1
11	13767	1299.723994823667	2
11	13781	1300.759540505896	1
11	13803	1304.042971465624	2
11	13810	1304.080467821318	1
11	13841	1308.361948107581	2
11	13847	1308.681165616811	1
11	13879	1312.680924749538	2
11	13884	1312.8597846721	1
11	13913	1316.999901391495	2
11	13950	1321.318878033452	3
11	13991	1325.637854675409	4
11	14007	1327.83093961538	3
11	14026	1329.697159004192	2
11	14029	1329.740302732691	1
11	14030	1329.956831317366	2
11	14041	1331.848609129366	1
11	14066	1334.275807959323	2
11	14076	1335.866278643352	1
11	14098	1338.59478460128	2
11	14127	1341.093687726576	1
11	14134	1342.913761243237	2
11	14174	1347.232737885194	3
11	14184	1347.91928718531	2
11	14199	1349.160517170712	1
11	14214	1351.551714527151	2
11	14230	1353.19393189278	1
11	14250	1355.870691169108	2
11	14270	1357.627906123715	1
11	14288	1360.189667811065	2
11	14298	1361.329008406511	1
11	14301	1361.449043397032	0
11	14329	1364.508644453022	1
11	14333	1364.56102524022	0
11	14365	1368.827621094979	1
11	14400	1373.146597736936	2
11	14429	1376.042973783212	1
11	14438	1377.465574378893	2
11	14452	1378.795829052275	1
11	14473	1381.78455102085	2
11	14514	1386.103527662807	3
11	14549	1390.422504304764	4
11	14555	1392.113651839156	3
11	14582	1394.741480946721	4
11	14615	1399.060457588678	5
11	14648	1403.379434230635	6
11	14652	1403.447282638271	5
11	14693	1407.766259280228	6
11	14714	1410.547713445115	5
11	14731	1412.201999409086	4
11	14750	1414.866690087072	5
11	14765	1416.219668923072	4
11	14786	1419.185666729029	5
11	14795	1420.237338437058	4
11	14821	1423.504643370986	5
11	14829	1424.255007951044	4
11	14859	1427.823620012943	5
11	14863	1428.0647940259	4
11	14900	1432.1425966549	5
11	14905	1432.290346979016	4
11	14937	1436.461573296857	5
11	14943	1436.727867174832	4
11	14971	1440.780549938814	5
11	14975	1440.964859074538	4
11	15001	1445.099526580771	5
11	15031	1447.257435732772	4
11	15047	1449.418503222728	5
11	15086	1453.737479864685	6
11	15105	1456.095125427971	5
11	15110	1456.704696575552	4
11	15143	1460.414102069928	5
11	15173	1464.431703090904	4
11	15179	1464.733078711885	5
11	15189	1466.624693985911	4
11	15197	1467.288658039832	3
11	15216	1469.052055353842	4
11	15244	1472.553564748358	3
11	15246	1473.371031995799	4
11	15277	1476.484711632862	3
11	15289	1477.690008637756	4
11	15303	1478.846141406592	3
11	15318	1480.9846013473	2
11	15321	1482.008985279713	3
11	15351	1484.635443695075	2
11	15363	1486.32796192167	3
11	15385	1489.375709964532	2
11	15402	1490.646938563627	3
11	15405	1491.56856281158	2
11	15410	1492.555389688806	1
11	15432	1494.965915205584	2
11	15436	1495.219405159355	1
11	15462	1498.396861887228	0
11	15472	1499.284891847541	1
11	15478	1499.905278522472	0
11	15505	1503.603868489498	1
11	15531	1506.463691331364	0
11	15537	1507.922845131455	1
11	15553	1508.742968217671	0
11	15575	1512.241821773412	1
11	15586	1512.643737258736	0
11	15613	1516.560798415369	1
11	15640	1519.272536775611	0
11	15657	1520.879775057326	1
11	15661	1520.964415638352	0
11	15692	1525.198751699283	1
11	15701	1526.630764941704	0
11	15724	1529.51772834124	1
11	15736	1530.664179663772	0
11	15760	1533.836704983197	1
11	15782	1535.730976095998	0
11	15794	1538.155681625154	1
11	15824	1541.376388289792	0
11	15835	1542.474658267111	1
11	15871	1546.793634909068	2
11	15878	1548.139212480755	1
11	15905	1550.861242449431	0
11	15906	1551.112611551025	1
11	15945	1555.431588192982	2
11	15978	1559.750564834939	3
11	16018	1564.069541476896	4
11	16026	1564.873440940554	3
11	16056	1568.388518118853	4
11	16090	1572.70749476081	5
11	16095	1572.908779968526	4
11	16129	1577.026471402767	5
11	16142	1579.065156328588	4
11	16165	1581.345448044724	5
11	16174	1582.449948123251	4
11	16182	1583.712234146912	3
11	16199	1585.664424686681	4
11	16209	1586.8242159901	3
11	16235	1589.983401328638	4
11	16270	1594.302377970595	5
11	16309	1598.621354612552	6
11	16313	1598.908387443638	5
11	16353	1603.227364085595	6
11	16398	1609.0678055944	5
11	16421	1611.642981266435	4
11	16431	1613.386782236357	5
11	16450	1615.730532659812	4
11	16467	1617.705758878314	5
11	16474	1618.57610038294	4
11	16480	1619.399303549268	3
11	16501	1622.024735520271	4
11	16505	1622.226942730715	3
11	16537	1626.260101217752	2
11	16538	1626.343712162228	3
11	16570	1630.662688804185	4
11	16604	1634.981665446142	5
11	16621	1636.632041468312	4
11	16639	1639.300642088099	5
11	16649	1639.7440233115	4
11	16660	1641.026661675398	3
11	16678	1643.599791881676	2
11	16679	1643.619618730056	3
11	16697	1645.627359470891	2
11	16710	1647.319238333632	1
11	16717	1647.938595372013	2
11	16748	1652.25757201397	3
11	16779	1656.156928028831	2
11	16782	1656.576548655927	3
11	16808	1659.733450769948	2
11	16817	1660.895525297884	3
11	16825	1662.085798791278	2
11	16849	1664.562788587835	1
11	16850	1665.214501939841	2
11	16855	1665.315178790204	1
11	16890	1669.533478581798	2
11	16907	1671.49590770434	1
11	16927	1673.350517818176	0
11	16930	1673.852455223755	1
11	16965	1678.171431865712	2
11	16969	1678.907944007452	1
11	17001	1682.490408507669	2
11	17005	1683.144935907158	1
11	17028	1685.730711516395	0
11	17032	1686.809385149626	1
11	17059	1689.437512565392	0
11	17068	1691.128361791583	1
11	17086	1692.6638306329	0
11	17103	1695.44733843354	1
11	17140	1699.766315075497	2
11	17161	1701.474204416078	1
11	17168	1703.24779209718	0
11	17172	1704.085291717454	1
11	17177	1704.101012712696	0
11	17208	1708.404268359411	1
11	17235	1710.496649681272	0
11	17246	1712.723245001368	1
11	17276	1716.2012568789	0
11	17284	1717.042221643325	1
11	17288	1717.482595909235	0
11	17319	1721.361198285282	1
11	17344	1724.268086323036	0
11	17356	1725.680174927239	1
11	17395	1729.999151569196	2
11	17407	1731.555786797152	1
11	17427	1734.318128211153	2
11	17435	1734.99967649002	1
11	17441	1735.792778696858	0
11	17468	1738.63710485311	1
11	17499	1742.085355355092	0
11	17502	1742.956081495067	1
11	17512	1744.435159933376	0
11	17533	1747.275058137024	1
11	17568	1751.594034778981	2
11	17588	1753.055617575392	1
11	17607	1755.913011420938	2
11	17616	1756.851915812738	1
11	17640	1759.818441766355	0
11	17641	1760.231988062895	1
11	17676	1764.550964704852	2
11	17690	1765.756916639854	1
11	17715	1768.869941346809	2
11	17731	1770.402403230635	1
11	17745	1773.188917988766	2
11	17787	1777.33552234714	1
11	17788	1777.507894630723	2
11	17814	1780.986364694915	1
11	17818	1781.82687127268	2
11	17845	1784.769307154056	1
11	17847	1784.807501968232	0
11	17857	1786.145847914637	1
11	17879	1788.440621486558	0
11	17889	1790.464824556594	1
11	17914	1793.041319282051	0
11	17928	1794.783801198551	1
11	17934	1795.391463432512	0
11	17968	1799.102777840508	1
