version 2
run conf1-0-20161124-17:14:17-1968
attr configname conf1
attr datetime 20161124-17:14:17
attr experiment conf1
attr inifile omnetpp.ini
attr iterationvars ""
attr iterationvars2 $repetition=0
attr measurement ""
attr network Omrezje
attr processid 1968
attr repetition 0
attr replication #0
attr resultdir results
attr runnumber 0
attr seedset 0
param Omrezje.source*.interArrivalTime 10

vector 0  Omrezje.router  droppedPackage:vector  ETV
attr interpolationmode  none
attr title  "drop package, vector"
vector 1  Omrezje.router  queueLength:vector  ETV
attr interpolationmode  none
attr title  "queue length, vector"
vector 2  Omrezje.router1  droppedPackage:vector  ETV
attr interpolationmode  none
attr title  "drop package, vector"
vector 3  Omrezje.router1  queueLength:vector  ETV
attr interpolationmode  none
attr title  "queue length, vector"
vector 4  Omrezje.router2  droppedPackage:vector  ETV
attr interpolationmode  none
attr title  "drop package, vector"
vector 5  Omrezje.router2  queueLength:vector  ETV
attr interpolationmode  none
attr title  "queue length, vector"
vector 6  Omrezje.router3  droppedPackage:vector  ETV
attr interpolationmode  none
attr title  "drop package, vector"
vector 7  Omrezje.router3  queueLength:vector  ETV
attr interpolationmode  none
attr title  "queue length, vector"
vector 8  Omrezje.router4  droppedPackage:vector  ETV
attr interpolationmode  none
attr title  "drop package, vector"
vector 9  Omrezje.router4  queueLength:vector  ETV
attr interpolationmode  none
attr title  "queue length, vector"
vector 10  Omrezje.router5  droppedPackage:vector  ETV
attr interpolationmode  none
attr title  "drop package, vector"
vector 11  Omrezje.router5  queueLength:vector  ETV
attr interpolationmode  none
attr title  "queue length, vector"
0	0	0	0
1	0	0	0
1	176	3	59
1	185	4	60
1	200	5	59
1	205	6	60
1	271	15	59
1	280	16	60
1	306	22	59
1	312	23	60
1	320	23	59
1	329	24	60
1	347	25	59
1	357	26	60
1	361	26	59
1	369	27	60
1	388	32	59
1	390	32	58
1	394	33	59
1	396	33	60
1	408	34	59
1	418	34	58
1	424	35	59
1	429	35	60
1	433	35	59
1	436	36	60
1	441	36	59
1	445	36	58
1	450	37	59
1	451	37	60
1	454	38	59
1	458	39	60
1	472	42	59
1	474	42	58
1	478	43	59
1	480	43	60
1	485	43	59
1	491	44	60
1	494	44	59
1	503	44	58
1	510	45	59
1	515	45	60
1	520	45	59
1	525	46	60
1	531	46	59
1	535	46	58
1	543	47	59
1	544	47	60
1	548	48	59
1	552	49	60
1	615	55	59
1	626	56	60
1	654	62	59
1	656	62	58
1	660	63	59
1	662	63	60
1	665	63	59
1	672	63	58
1	675	64	59
1	677	64	60
1	681	64	59
1	687	64	58
1	691	65	59
1	694	65	60
1	696	65	59
1	699	66	60
1	702	66	59
1	708	67	60
1	733	73	59
1	737	73	58
1	745	74	59
1	747	74	60
1	758	75	59
1	764	75	58
1	767	76	59
1	770	76	60
1	774	77	59
1	778	78	60
1	796	82	59
1	802	83	60
1	805	83	59
1	817	84	60
1	850	92	59
1	856	93	60
1	863	93	59
1	871	94	60
1	875	94	59
1	878	94	58
1	886	95	59
1	888	95	60
1	892	95	59
1	897	95	58
1	901	96	59
1	903	96	60
1	907	96	59
1	916	97	60
1	919	97	59
1	926	98	60
1	946	102	59
1	952	103	60
1	957	103	59
1	970	104	60
1	1073	117	59
1	1077	118	60
1	1106	123	59
1	1109	123	58
1	1117	124	59
1	1119	124	60
1	1131	125	59
1	1135	125	58
1	1137	125	57
1	1140	126	58
1	1142	126	59
1	1144	126	60
1	1148	127	59
1	1150	127	60
1	1153	128	59
1	1157	129	60
1	1172	132	59
1	1174	132	58
1	1178	133	59
1	1180	133	60
1	1185	133	59
1	1193	134	60
1	1196	134	59
1	1202	134	58
1	1209	135	59
1	1212	135	60
1	1213	135	59
1	1218	136	60
1	1220	136	59
1	1226	137	60
1	1230	137	59
1	1233	138	60
1	1252	142	59
1	1258	143	60
1	1295	145	59
1	1303	146	60
1	1335	153	59
1	1338	153	58
1	1345	154	59
1	1347	154	60
1	1362	155	59
1	1374	156	60
1	1404	162	59
1	1410	163	60
1	1415	163	59
1	1426	164	60
1	1460	172	59
1	1466	173	60
1	1469	173	59
1	1481	174	60
1	1487	174	59
1	1498	175	60
1	1524	182	59
1	1530	183	60
1	1533	183	59
1	1545	184	60
1	1580	192	59
1	1586	193	60
1	1592	193	59
1	1594	193	58
1	1601	194	59
1	1603	194	60
1	1606	194	59
1	1619	195	60
1	1620	195	59
1	1625	195	58
1	1633	196	59
1	1635	196	60
1	1646	197	59
1	1649	198	60
1	1675	203	59
1	1678	203	58
1	1685	204	59
1	1687	204	60
1	1701	205	59
1	1709	205	58
1	1713	206	59
1	1718	206	60
1	1725	207	59
1	1730	208	60
1	1750	212	59
1	1756	213	60
1	1766	213	59
1	1773	214	60
1	1793	216	59
1	1796	217	60
1	1816	222	59
1	1821	223	60
1	1823	223	59
1	1832	224	60
1	1834	224	59
1	1839	225	60
1	1849	227	59
1	1851	228	60
1	1933	238	59
1	1935	239	60
1	1950	242	59
1	1956	243	60
1	1988	246	59
1	1990	247	60
1	2010	252	59
1	2016	253	60
1	2018	253	59
1	2027	254	60
1	2029	254	59
1	2035	255	60
1	2043	257	59
1	2047	258	60
1	2057	260	59
1	2060	261	60
1	2082	262	59
1	2089	263	60
1	2092	263	59
1	2099	264	60
1	2103	264	59
1	2112	265	60
1	2136	269	59
1	2137	270	60
1	2154	272	59
1	2156	272	58
1	2160	273	59
1	2161	273	60
1	2163	273	59
1	2169	274	60
1	2170	274	59
1	2173	274	58
1	2175	274	57
1	2180	275	58
1	2182	275	59
1	2183	275	60
1	2185	275	59
1	2191	276	60
1	2193	276	59
1	2194	276	60
1	2196	276	59
1	2202	277	60
1	2203	277	59
1	2207	278	60
1	2230	282	59
1	2236	283	60
1	2248	284	59
1	2251	284	58
1	2256	285	59
1	2257	285	60
1	2265	286	59
1	2271	287	60
1	2273	287	59
1	2276	288	60
1	2319	294	59
1	2329	295	60
1	2339	296	59
1	2341	296	58
1	2344	297	59
1	2345	297	60
1	2349	298	59
1	2352	299	60
1	2377	303	59
1	2385	304	60
1	2389	304	59
1	2399	305	60
1	2402	305	59
1	2408	306	60
1	2414	306	59
1	2421	307	60
1	2444	312	59
1	2446	312	58
1	2450	313	59
1	2451	313	60
1	2458	314	59
1	2461	314	58
1	2463	314	57
1	2466	315	58
1	2467	315	59
1	2469	315	60
1	2476	316	59
1	2477	316	60
1	2484	316	59
1	2488	317	60
1	2491	317	59
1	2499	318	60
1	2511	320	59
1	2514	321	60
1	2531	322	59
1	2534	322	58
1	2539	323	59
1	2541	323	60
1	2545	323	59
1	2551	324	60
1	2554	324	59
1	2562	325	60
1	2565	325	59
1	2571	326	60
1	2606	332	59
1	2608	332	58
1	2612	333	59
1	2613	333	60
1	2621	334	59
1	2628	334	58
1	2634	335	59
1	2639	335	60
1	2641	335	59
1	2648	336	60
1	2651	336	59
1	2662	337	60
1	2671	339	59
1	2673	340	60
1	2697	343	59
1	2706	344	60
1	2758	352	59
1	2763	353	60
1	2772	354	59
1	2775	355	60
1	2777	355	59
1	2783	356	60
1	2790	357	59
1	2793	358	60
1	2811	361	59
1	2819	362	60
1	2830	362	59
1	2835	363	60
1	2857	365	59
1	2863	366	60
1	2864	366	59
1	2870	367	60
1	2871	367	59
1	2874	368	60
1	2896	372	59
1	2902	373	60
1	2907	373	59
1	2918	374	60
1	2925	374	59
1	2930	374	58
1	2933	375	59
1	2934	375	60
1	2939	376	59
1	2942	377	60
1	2962	382	59
1	2968	383	60
1	3001	386	59
1	3004	387	60
1	3022	392	59
1	3024	392	58
1	3028	393	59
1	3029	393	60
1	3031	393	59
1	3038	394	60
1	3039	394	59
1	3042	394	58
1	3044	394	57
1	3048	395	58
1	3049	395	59
1	3050	395	60
1	3055	396	59
1	3056	396	60
1	3059	396	59
1	3063	396	58
1	3066	397	59
1	3067	397	60
1	3068	397	59
1	3073	398	60
1	3074	398	59
1	3079	399	60
1	3098	402	59
1	3104	403	60
1	3109	403	59
1	3112	403	58
1	3119	404	59
1	3121	404	60
1	3125	404	59
1	3132	404	58
1	3134	405	59
1	3136	405	60
1	3138	405	59
1	3143	406	60
1	3145	406	59
1	3150	407	60
1	3172	412	59
1	3177	413	60
1	3187	414	59
1	3192	415	60
1	3211	419	59
1	3214	420	60
1	3221	421	59
1	3229	422	60
1	3238	422	59
1	3240	422	58
1	3245	423	59
1	3246	423	60
1	3250	423	59
1	3260	424	60
1	3261	424	59
1	3270	425	60
1	3292	428	59
1	3293	429	60
1	3321	433	59
1	3332	434	60
1	3374	442	59
1	3380	443	60
1	3411	447	59
1	3414	448	60
1	3436	452	59
1	3441	453	60
1	3454	454	59
1	3459	455	60
1	3465	456	59
1	3469	457	60
1	3470	457	59
1	3475	458	60
1	3476	458	59
1	3480	459	60
1	3481	459	59
1	3484	460	60
1	3510	462	59
1	3517	463	60
1	3520	463	59
1	3529	464	60
1	3546	465	59
1	3553	466	60
1	3580	472	59
1	3586	473	60
1	3615	475	59
1	3624	476	60
1	3634	477	59
1	3637	478	60
1	3652	482	59
1	3658	483	60
1	3672	484	59
1	3675	484	58
1	3683	485	59
1	3684	485	60
1	3693	486	59
1	3697	486	58
1	3700	486	57
1	3705	487	58
1	3707	487	59
1	3708	487	60
1	3713	488	59
1	3715	488	60
1	3718	489	59
1	3722	490	60
1	3740	492	59
1	3745	493	60
1	3759	494	59
1	3767	495	60
1	3769	495	59
1	3775	496	60
1	3777	496	59
1	3779	496	58
1	3783	497	59
1	3785	497	60
1	3786	497	59
1	3792	498	60
1	3793	498	59
1	3797	499	60
1	3820	502	59
1	3826	503	60
1	3844	504	59
1	3852	505	60
1	3858	506	59
1	3860	507	60
1	3880	512	59
1	3885	513	60
1	3916	518	59
1	3920	519	60
1	3925	520	59
1	3927	521	60
1	3955	523	59
1	3962	523	58
1	3966	524	59
1	3970	524	60
1	3980	525	59
1	3987	526	60
1	4006	532	59
1	4012	533	60
1	4016	533	59
1	4025	534	60
1	4030	534	59
1	4032	534	58
1	4039	535	59
1	4040	535	60
1	4047	536	59
1	4052	537	60
1	4114	546	59
1	4117	547	60
1	4136	552	59
1	4142	553	60
1	4145	553	59
1	4154	554	60
1	4164	554	59
1	4172	555	60
1	4198	562	59
1	4204	563	60
1	4207	563	59
1	4215	564	60
1	4231	567	59
1	4233	568	60
1	4264	572	59
1	4269	573	60
1	4306	577	59
1	4311	578	60
1	4325	581	59
1	4333	582	60
1	4354	583	59
1	4363	584	60
1	4416	592	59
1	4418	592	58
1	4422	593	59
1	4423	593	60
1	4432	594	59
1	4437	594	58
1	4440	594	57
1	4445	595	58
1	4447	595	59
1	4448	595	60
1	4449	595	59
1	4454	596	60
1	4456	596	59
1	4457	596	60
1	4458	596	59
1	4462	597	60
1	4463	597	59
1	4467	598	60
1	4488	602	59
1	4490	602	58
1	4494	603	59
1	4495	603	60
1	4503	604	59
1	4505	604	58
1	4509	605	59
1	4510	605	60
1	4515	606	59
1	4521	607	60
1	4525	608	59
1	4529	609	60
1	4530	609	59
1	4534	610	60
1	4555	612	59
1	4560	612	58
1	4564	613	59
1	4566	613	60
1	4575	614	59
1	4588	615	60
1	4594	615	59
1	4602	616	60
1	4604	616	59
1	4612	617	60
1	4631	620	59
1	4635	621	60
1	4653	622	59
1	4658	622	58
1	4661	623	59
1	4664	623	60
1	4673	624	59
1	4683	625	60
1	4686	625	59
1	4690	626	60
1	4695	627	59
1	4698	628	60
1	4699	628	59
1	4702	629	60
1	4726	632	59
1	4728	632	58
1	4732	633	59
1	4733	633	60
1	4745	634	59
1	4751	634	58
1	4754	634	57
1	4759	635	58
1	4762	635	59
1	4764	635	60
1	4767	635	59
1	4769	636	60
1	4772	636	59
1	4774	636	60
1	4777	637	59
1	4782	638	60
1	4798	642	59
1	4803	643	60
1	4818	644	59
1	4825	645	60
1	4834	647	59
1	4838	648	60
1	4843	649	59
1	4845	650	60
1	4864	652	59
1	4869	653	60
1	4896	655	59
1	4904	656	60
1	4905	656	59
1	4908	657	60
1	4977	667	59
1	4979	668	60
1	5015	674	59
1	5022	675	60
1	5032	677	59
1	5034	678	60
1	5056	682	59
1	5058	682	58
1	5062	683	59
1	5063	683	60
1	5072	684	59
1	5080	685	60
1	5094	688	59
1	5098	689	60
1	5103	690	59
1	5105	691	60
1	5122	692	59
1	5124	692	58
1	5128	693	59
1	5132	693	58
1	5140	694	59
1	5147	694	58
1	5153	695	59
1	5159	696	60
1	5178	702	59
1	5180	702	58
1	5184	703	59
1	5186	703	58
1	5192	704	59
1	5197	705	60
1	5208	707	59
1	5210	708	60
1	5221	710	59
1	5223	711	60
1	5242	712	59
1	5244	712	58
1	5248	713	59
1	5258	714	60
1	5261	714	59
1	5267	715	60
1	5296	719	59
1	5300	720	60
1	5301	720	59
1	5303	721	60
1	5331	723	59
1	5342	724	60
1	5359	725	59
1	5363	726	60
1	5392	732	59
1	5397	733	60
1	5407	734	59
1	5414	735	60
1	5422	736	59
1	5426	736	58
1	5429	737	59
1	5434	738	60
1	5437	738	59
1	5442	739	60
1	5466	742	59
1	5471	743	60
1	5472	743	59
1	5479	744	60
1	5497	747	59
1	5499	748	60
1	5526	753	59
1	5535	754	60
1	5555	756	59
1	5559	757	60
1	5590	762	59
1	5595	763	60
1	5617	766	59
1	5621	767	60
1	5622	767	59
1	5625	768	60
1	5627	768	59
1	5631	769	60
1	5661	773	59
1	5670	774	60
1	5673	774	59
1	5681	775	60
1	5683	775	59
1	5689	776	60
1	5695	776	59
1	5701	777	60
1	5764	786	59
1	5766	787	60
1	5784	792	59
1	5786	792	58
1	5790	793	59
1	5793	793	58
1	5802	794	59
1	5805	794	58
1	5811	795	59
1	5816	796	60
1	5819	797	59
1	5821	798	60
1	5850	803	59
1	5861	804	60
1	5892	812	59
1	5894	812	58
1	5898	813	59
1	5905	814	60
1	5918	815	59
1	5922	816	60
1	5932	818	59
1	5936	819	60
1	5941	820	59
1	5943	821	60
1	5962	822	59
1	5967	823	60
1	5969	823	59
1	5976	824	60
1	5978	824	59
1	5983	825	60
1	6006	829	59
1	6007	830	60
1	6024	832	59
1	6026	832	58
1	6030	833	59
1	6040	834	60
1	6050	834	59
1	6057	835	60
1	6059	835	59
1	6064	836	60
1	6065	836	59
1	6068	837	60
1	6088	842	59
1	6093	843	60
1	6121	845	59
1	6125	846	60
1	6126	846	59
1	6130	847	60
1	6156	852	59
1	6158	852	58
1	6162	853	59
1	6172	854	60
1	6181	854	59
1	6187	855	60
1	6190	855	59
1	6194	856	60
1	6195	856	59
1	6198	857	60
1	6220	862	59
1	6222	862	58
1	6226	863	59
1	6228	863	58
1	6234	864	59
1	6239	864	58
1	6243	865	59
1	6251	866	60
1	6266	869	59
1	6267	870	60
1	6294	873	59
1	6304	874	60
1	6336	882	59
1	6342	883	60
1	6375	886	59
1	6377	887	60
1	6404	893	59
1	6408	893	58
1	6416	894	59
1	6425	895	60
1	6456	902	59
1	6462	903	60
1	6465	903	59
1	6469	903	58
1	6476	904	59
1	6484	905	60
1	6489	905	59
1	6492	906	60
1	6514	912	59
1	6519	913	60
1	6520	913	59
1	6527	914	60
1	6557	920	59
1	6559	921	60
1	6578	922	59
1	6584	923	60
1	6597	924	59
1	6602	925	60
1	6622	928	59
1	6625	929	60
1	6642	932	59
1	6647	933	60
1	6658	934	59
1	6665	935	60
1	6666	935	59
1	6672	936	60
1	6675	936	59
1	6680	936	58
1	6682	937	59
1	6691	938	60
1	6697	939	59
1	6700	940	60
1	6720	942	59
1	6726	943	60
1	6743	944	59
1	6746	944	58
1	6753	945	59
1	6758	945	58
1	6761	946	59
1	6767	947	60
1	6786	952	59
1	6792	953	60
1	6807	954	59
1	6813	955	60
1	6815	955	59
1	6820	956	60
1	6829	957	59
1	6832	958	60
1	6856	962	59
1	6862	963	60
1	6897	969	59
1	6899	970	60
1	6914	972	59
1	6916	972	58
1	6920	973	59
1	6924	973	58
1	6933	974	59
1	6944	975	60
1	6956	977	59
1	6957	978	60
1	6974	982	59
1	6980	983	60
1	6983	983	59
1	6990	984	60
1	6993	984	59
1	6995	984	58
1	7000	985	59
1	7001	985	58
1	7005	986	59
1	7007	986	58
1	7009	986	57
1	7012	987	58
1	7018	988	59
1	7023	989	60
1	7091	996	59
1	7094	997	60
1	7112	1002	59
1	7114	1002	58
1	7118	1003	59
1	7128	1004	60
1	7132	1004	59
1	7137	1004	58
1	7141	1005	59
1	7148	1005	58
1	7149	1006	59
1	7153	1007	60
1	7172	1012	59
1	7174	1012	58
1	7178	1013	59
1	7181	1013	58
1	7189	1014	59
1	7191	1014	58
1	7195	1015	59
1	7199	1016	60
1	7206	1017	59
1	7210	1018	60
1	7232	1022	59
1	7238	1023	60
1	7255	1024	59
1	7258	1024	58
1	7266	1025	59
1	7274	1026	60
1	7291	1028	59
1	7293	1029	60
1	7308	1032	59
1	7310	1032	58
1	7314	1033	59
1	7316	1033	58
1	7322	1034	59
1	7328	1034	58
1	7332	1035	59
1	7334	1035	58
1	7338	1036	59
1	7339	1036	58
1	7342	1037	59
1	7347	1038	60
1	7370	1042	59
1	7375	1043	60
1	7385	1044	59
1	7392	1045	60
1	7404	1047	59
1	7406	1048	60
1	7428	1052	59
1	7430	1052	58
1	7434	1053	59
1	7437	1053	58
1	7444	1054	59
1	7451	1054	58
1	7455	1055	59
1	7458	1055	58
1	7462	1056	59
1	7464	1057	60
1	7488	1062	59
1	7490	1062	58
1	7494	1063	59
1	7497	1063	58
1	7506	1064	59
1	7514	1065	60
1	7530	1068	59
1	7531	1069	60
1	7548	1072	59
1	7550	1072	58
1	7554	1073	59
1	7564	1074	60
1	7573	1074	59
1	7580	1075	60
1	7594	1077	59
1	7596	1078	60
1	7597	1078	59
1	7599	1079	60
1	7618	1082	59
1	7623	1083	60
1	7665	1089	59
1	7668	1090	60
1	7669	1090	59
1	7671	1091	60
1	7706	1094	59
1	7713	1095	60
1	7723	1096	59
1	7727	1097	60
1	7728	1097	59
1	7731	1098	60
1	7754	1102	59
1	7759	1103	60
1	7768	1104	59
1	7773	1105	60
1	7774	1105	59
1	7779	1106	60
1	7784	1106	59
1	7787	1107	60
1	7788	1107	59
1	7791	1108	60
1	7792	1108	59
1	7796	1109	60
1	7833	1113	59
1	7842	1114	60
1	7845	1114	59
1	7850	1115	60
1	7886	1122	59
1	7891	1123	60
1	7901	1124	59
1	7906	1125	60
1	7933	1129	59
1	7936	1130	60
1	7937	1130	59
1	7939	1131	60
1	7982	1135	59
1	7987	1136	60
1	7992	1136	59
1	7995	1137	60
1	8032	1144	59
1	8038	1145	60
1	8049	1146	59
1	8053	1146	58
1	8057	1147	59
1	8062	1148	60
1	8088	1152	59
1	8094	1153	60
1	8098	1153	59
1	8108	1154	60
1	8115	1154	59
1	8122	1155	60
1	8164	1164	59
1	8169	1165	60
1	8184	1166	59
1	8185	1166	58
1	8190	1167	59
1	8196	1167	58
1	8197	1168	59
1	8201	1169	60
1	8226	1172	59
1	8231	1173	60
1	8257	1177	59
1	8259	1178	60
1	8260	1178	59
1	8263	1179	60
1	8286	1182	59
1	8291	1183	60
1	8318	1187	59
1	8322	1188	60
1	8324	1188	59
1	8328	1189	60
1	8354	1192	59
1	8360	1193	60
1	8361	1193	59
1	8369	1194	60
1	8412	1202	59
1	8414	1202	58
1	8418	1203	59
1	8421	1203	58
1	8424	1203	57
1	8427	1204	58
1	8433	1204	57
1	8436	1205	58
1	8440	1205	57
1	8444	1206	58
1	8448	1207	59
1	8452	1207	58
1	8455	1208	59
1	8459	1209	60
1	8482	1212	59
1	8487	1213	60
1	8530	1218	59
1	8531	1219	60
1	8546	1222	59
1	8552	1223	60
1	8587	1226	59
1	8590	1227	60
1	8641	1236	59
1	8646	1237	60
1	8670	1242	59
1	8675	1243	60
1	8704	1248	59
1	8707	1249	60
1	8710	1249	59
1	8711	1250	60
1	8728	1252	59
1	8734	1253	60
1	8745	1254	59
1	8748	1254	58
1	8753	1255	59
1	8755	1255	58
1	8760	1256	59
1	8767	1257	60
1	8769	1257	59
1	8774	1258	60
1	8800	1262	59
1	8806	1263	60
1	8818	1264	59
1	8820	1264	58
1	8825	1265	59
1	8827	1265	58
1	8833	1266	59
1	8839	1266	58
1	8843	1267	59
1	8851	1268	60
1	8855	1268	59
1	8858	1269	60
1	8880	1272	59
1	8886	1273	60
1	8918	1276	59
1	8922	1277	60
1	8944	1282	59
1	8950	1283	60
1	8954	1283	59
1	8958	1283	58
1	8963	1284	59
1	8973	1285	60
1	8983	1286	59
1	8986	1287	60
1	9042	1297	59
1	9044	1298	60
1	9062	1302	59
1	9064	1302	58
1	9068	1303	59
1	9070	1303	58
1	9075	1304	59
1	9080	1304	58
1	9085	1305	59
1	9093	1306	60
1	9117	1310	59
1	9119	1311	60
1	9153	1314	59
1	9162	1315	60
1	9172	1316	59
1	9176	1317	60
1	9202	1322	59
1	9208	1323	60
1	9236	1326	59
1	9237	1327	60
1	9254	1332	59
1	9259	1333	60
1	9268	1334	59
1	9273	1335	60
1	9286	1336	59
1	9290	1337	60
1	9302	1339	59
1	9306	1340	60
1	9324	1342	59
1	9330	1343	60
1	9333	1343	59
1	9340	1344	60
1	9343	1344	59
1	9345	1344	58
1	9350	1345	59
1	9351	1345	58
1	9356	1346	59
1	9361	1347	60
1	9392	1352	59
1	9398	1353	60
1	9399	1353	59
1	9407	1354	60
1	9435	1359	59
1	9437	1360	60
1	9462	1363	59
1	9470	1364	60
1	9508	1372	59
1	9514	1373	60
1	9516	1373	59
1	9520	1373	58
1	9526	1374	59
1	9534	1375	60
1	9543	1376	59
1	9548	1377	60
1	9552	1377	59
1	9555	1378	60
1	9576	1382	59
1	9578	1382	58
1	9582	1383	59
1	9585	1383	58
1	9588	1383	57
1	9591	1384	58
1	9599	1384	57
1	9602	1385	58
1	9608	1386	59
1	9611	1387	60
1	9641	1393	59
1	9651	1394	60
1	9680	1402	59
1	9682	1402	58
1	9686	1403	59
1	9688	1403	58
1	9694	1404	59
1	9696	1404	58
1	9701	1405	59
1	9703	1405	58
1	9707	1406	59
1	9714	1407	60
1	9729	1410	59
1	9731	1411	60
1	9750	1412	59
1	9756	1413	60
1	9758	1413	59
1	9766	1414	60
1	9768	1414	59
1	9773	1415	60
1	9778	1416	59
1	9781	1417	60
1	9782	1417	59
1	9785	1418	60
1	9843	1425	59
1	9848	1426	60
1	9849	1426	59
1	9853	1427	60
1	9854	1427	59
1	9858	1428	60
1	9886	1432	59
1	9893	1433	60
1	9907	1434	59
1	9910	1434	58
1	9917	1435	59
1	9925	1436	60
1	9929	1436	59
1	9932	1436	58
1	9936	1437	59
1	9941	1438	60
1	9960	1442	59
1	9962	1442	58
1	9966	1443	59
1	9975	1444	60
1	9984	1444	59
1	9990	1445	60
1	9991	1445	59
1	9997	1446	60
1	9998	1446	59
1	10002	1447	60
1	10026	1452	59
1	10031	1453	60
1	10060	1457	59
1	10064	1458	60
1	10069	1459	59
1	10071	1460	60
1	10088	1462	59
1	10094	1463	60
1	10107	1464	59
1	10109	1464	58
1	10116	1465	59
1	10125	1466	60
1	10145	1469	59
1	10147	1470	60
1	10162	1472	59
1	10164	1472	58
1	10168	1473	59
1	10177	1474	60
1	10180	1474	59
1	10184	1474	58
1	10188	1475	59
1	10189	1475	58
1	10194	1476	59
1	10198	1477	60
1	10200	1477	59
1	10206	1478	60
1	10217	1481	59
1	10225	1482	60
1	10278	1486	59
1	10281	1487	60
1	10323	1495	59
1	10331	1496	60
1	10342	1497	59
1	10345	1498	60
1	10351	1499	59
1	10354	1500	60
1	10374	1502	59
1	10376	1502	58
1	10380	1503	59
1	10389	1504	60
1	10393	1504	59
1	10398	1504	58
1	10402	1505	59
1	10404	1505	58
1	10409	1506	59
1	10410	1506	58
1	10413	1507	59
1	10418	1508	60
1	10458	1514	59
1	10465	1515	60
1	10477	1516	59
1	10482	1517	60
1	10483	1517	59
1	10487	1518	60
1	10488	1518	59
1	10492	1519	60
1	10518	1522	59
1	10523	1523	60
1	10549	1525	59
1	10552	1526	60
1	10554	1526	59
1	10558	1527	60
1	10584	1532	59
1	10586	1532	58
1	10590	1533	59
1	10597	1534	60
1	10617	1537	59
1	10619	1538	60
1	10620	1538	59
1	10623	1539	60
1	10644	1542	59
1	10646	1542	58
1	10650	1543	59
1	10657	1544	60
1	10661	1544	59
1	10665	1544	58
1	10669	1545	59
1	10675	1546	60
1	10682	1547	59
1	10686	1548	60
1	10694	1550	59
1	10695	1551	60
1	10714	1552	59
1	10719	1553	60
1	10758	1558	59
1	10759	1559	60
1	10782	1563	59
1	10788	1564	60
1	10804	1565	59
1	10811	1566	60
1	10842	1572	59
1	10848	1573	60
1	10858	1574	59
1	10864	1575	60
1	10879	1577	59
1	10884	1578	60
1	10889	1579	59
1	10891	1580	60
1	10908	1582	59
1	10914	1583	60
1	10918	1583	59
1	10926	1584	60
1	10929	1584	59
1	10936	1585	60
1	10944	1586	59
1	10947	1587	60
1	10976	1592	59
1	10978	1592	58
1	10982	1593	59
1	10993	1594	60
1	11012	1596	59
1	11014	1597	60
1	11034	1602	59
1	11039	1603	60
1	11059	1605	59
1	11063	1606	60
1	11068	1607	59
1	11070	1608	60
1	11101	1613	59
1	11109	1614	60
1	11158	1622	59
1	11160	1622	58
1	11164	1623	59
1	11168	1623	58
1	11177	1624	59
1	11189	1625	60
1	11202	1627	59
1	11203	1628	60
1	11222	1632	59
1	11228	1633	60
1	11266	1638	59
1	11267	1639	60
1	11284	1642	59
1	11290	1643	60
1	11292	1643	59
1	11303	1644	60
1	11314	1645	59
1	11317	1646	60
1	11318	1646	59
1	11320	1647	60
1	11346	1652	59
1	11352	1653	60
1	11354	1653	59
1	11364	1654	60
1	11374	1655	59
1	11377	1656	60
1	11378	1656	59
1	11380	1657	60
1	11404	1662	59
1	11410	1663	60
1	11420	1664	59
1	11427	1665	60
1	11457	1669	59
1	11459	1670	60
1	11482	1673	59
1	11490	1674	60
1	11532	1682	59
1	11537	1683	60
1	11549	1684	59
1	11554	1685	60
1	11560	1686	59
1	11563	1687	60
1	11570	1688	59
1	11574	1689	60
1	11594	1692	59
1	11596	1692	58
1	11600	1693	59
1	11603	1693	58
1	11607	1693	57
1	11610	1694	58
1	11616	1695	59
1	11623	1696	60
1	11631	1697	59
1	11636	1698	60
1	11640	1698	59
1	11642	1699	60
1	11662	1702	59
1	11664	1702	58
1	11668	1703	59
1	11671	1703	58
1	11679	1704	59
1	11685	1704	58
1	11689	1705	59
1	11695	1705	58
1	11697	1706	59
1	11701	1707	60
1	11722	1712	59
1	11724	1712	58
1	11728	1713	59
1	11739	1714	60
1	11747	1714	59
1	11750	1714	58
1	11753	1715	59
1	11755	1715	58
1	11759	1716	59
1	11760	1716	58
1	11764	1717	59
1	11768	1718	60
1	11790	1722	59
1	11792	1722	58
1	11796	1723	59
1	11802	1724	60
1	11805	1724	59
1	11808	1724	58
1	11811	1725	59
1	11820	1726	60
1	11844	1730	59
1	11846	1731	60
1	11847	1731	59
1	11855	1732	60
1	11896	1735	59
1	11906	1736	60
1	11925	1739	59
1	11927	1740	60
1	11942	1742	59
1	11948	1743	60
1	11967	1744	59
1	11976	1745	60
1	11996	1747	59
1	11998	1748	60
1	12016	1752	59
1	12022	1753	60
1	12049	1755	59
1	12052	1756	60
1	12053	1756	59
1	12055	1757	60
1	12072	1762	59
1	12074	1762	58
1	12078	1763	59
1	12085	1764	60
1	12089	1764	59
1	12093	1764	58
1	12097	1765	59
1	12098	1765	58
1	12102	1766	59
1	12103	1766	58
1	12107	1767	59
1	12108	1767	58
1	12112	1768	59
1	12116	1769	60
1	12140	1772	59
1	12142	1772	58
1	12146	1773	59
1	12156	1774	60
1	12179	1777	59
1	12184	1778	60
1	12189	1779	59
1	12191	1780	60
1	12208	1782	59
1	12210	1782	58
1	12214	1783	59
1	12224	1784	60
1	12245	1787	59
1	12247	1788	60
1	12266	1792	59
1	12272	1793	60
1	12273	1793	59
1	12281	1794	60
1	12284	1794	59
1	12289	1795	60
1	12297	1796	59
1	12300	1797	60
2	0	0	0
3	0	0	0
3	157	2	59
3	161	2	58
3	163	3	59
3	167	3	60
3	170	3	59
3	179	4	60
3	182	4	59
3	188	4	58
3	192	4	57
3	197	5	58
3	198	5	59
3	199	5	60
3	203	6	59
3	204	6	60
3	209	7	59
3	210	8	60
3	223	12	59
3	227	12	58
3	229	13	59
3	233	13	60
3	236	13	59
3	242	13	58
3	243	14	59
3	246	14	60
3	250	14	59
3	252	14	58
3	257	14	57
3	261	15	58
3	265	15	59
3	266	15	60
3	268	15	59
3	274	16	60
3	277	16	59
3	278	16	60
3	288	17	59
3	290	18	60
3	303	22	59
3	305	22	58
3	307	22	57
3	309	23	58
3	311	23	59
3	313	23	60
3	319	23	59
3	323	24	60
3	324	24	59
3	328	24	60
3	332	24	59
3	337	24	58
3	340	25	59
3	344	25	60
3	346	25	59
3	348	25	58
3	350	25	57
3	352	26	58
3	356	26	59
3	358	26	60
3	359	26	59
3	365	27	60
3	367	27	59
3	368	27	60
3	371	28	59
3	374	29	60
3	387	32	59
3	389	32	58
3	393	33	59
3	395	33	60
3	402	33	59
3	407	34	60
3	412	34	59
3	416	34	58
3	420	34	57
3	426	35	58
3	428	35	59
3	430	35	60
3	431	35	59
3	434	35	58
3	438	36	59
3	439	36	60
3	440	36	59
3	442	36	60
3	448	37	59
3	449	37	60
3	453	38	59
3	457	39	60
3	471	42	59
3	473	42	58
3	477	43	59
3	479	43	60
3	486	43	59
3	489	43	58
3	490	44	59
3	495	44	60
3	497	44	59
3	499	44	58
3	501	44	57
3	508	45	58
3	511	45	59
3	513	45	60
3	514	45	59
3	518	45	58
3	521	45	57
3	523	46	58
3	526	46	59
3	528	46	60
3	530	46	59
3	532	46	60
3	539	47	59
3	540	47	60
3	542	47	59
3	546	48	60
3	547	48	59
3	551	49	60
3	565	52	59
3	567	52	58
3	569	52	57
3	571	53	58
3	573	53	59
3	575	53	60
3	584	54	59
3	585	54	60
3	593	54	59
3	595	54	58
3	600	54	57
3	604	55	58
3	608	55	59
3	609	55	60
3	611	55	59
3	614	55	58
3	618	56	59
3	621	56	60
3	623	56	59
3	625	56	60
3	634	57	59
3	636	57	60
3	638	58	59
3	640	59	60
3	655	62	59
3	657	62	58
3	661	63	59
3	663	63	60
3	667	63	59
3	671	63	58
3	676	64	59
3	678	64	60
3	680	64	59
3	685	64	58
3	692	65	59
3	693	65	60
3	695	65	59
3	700	66	60
3	701	66	59
3	707	67	60
3	721	72	59
3	723	72	58
3	727	73	59
3	729	73	60
3	735	73	59
3	743	74	60
3	746	74	59
3	759	75	60
3	772	76	59
3	776	77	60
3	793	82	59
3	795	82	58
3	799	83	59
3	801	83	60
3	816	84	59
3	830	85	60
3	833	85	59
3	835	86	60
3	849	92	59
3	851	92	58
3	853	92	57
3	855	93	58
3	857	93	59
3	859	93	60
3	866	93	59
3	867	94	60
3	868	94	59
3	874	94	60
3	876	94	59
3	883	94	58
3	885	95	59
3	887	95	60
3	891	95	59
3	893	95	58
3	896	95	57
3	900	96	58
3	902	96	59
3	904	96	60
3	906	96	59
3	911	96	58
3	915	97	59
3	917	97	60
3	918	97	59
3	921	97	60
3	924	98	59
3	925	98	60
3	931	99	59
3	932	100	60
3	959	103	59
3	971	104	60
3	1005	112	59
3	1011	113	60
3	1050	115	59
3	1060	116	60
3	1066	116	59
3	1072	117	60
3	1091	122	59
3	1093	122	58
3	1095	122	57
3	1097	123	58
3	1099	123	59
3	1101	123	60
3	1104	123	59
3	1112	124	60
3	1114	124	59
3	1116	124	60
3	1122	124	59
3	1126	124	58
3	1129	125	59
3	1132	125	60
3	1134	125	59
3	1139	126	60
3	1141	126	59
3	1147	126	58
3	1149	127	59
3	1151	127	60
3	1154	128	59
3	1158	129	60
3	1171	132	59
3	1173	132	58
3	1177	133	59
3	1179	133	60
3	1192	134	59
3	1207	135	60
3	1217	135	59
3	1222	136	60
3	1223	136	59
3	1224	136	58
3	1227	137	59
3	1228	137	60
3	1231	138	59
3	1236	139	60
3	1249	142	59
3	1253	142	58
3	1255	143	59
3	1259	143	60
3	1262	143	59
3	1269	143	58
3	1270	144	59
3	1273	144	60
3	1277	144	59
3	1280	144	58
3	1284	144	57
3	1287	145	58
3	1290	145	59
3	1291	145	60
3	1293	145	59
3	1297	146	60
3	1299	146	59
3	1301	146	60
3	1308	147	59
3	1310	148	60
3	1323	152	59
3	1325	152	58
3	1329	153	59
3	1331	153	60
3	1342	153	59
3	1343	154	60
3	1350	154	59
3	1356	154	58
3	1364	155	59
3	1367	155	60
3	1370	155	59
3	1376	156	60
3	1379	156	59
3	1388	157	60
3	1407	162	59
3	1413	163	60
3	1417	163	59
3	1425	163	58
3	1427	164	59
3	1431	164	60
3	1439	165	59
3	1442	166	60
3	1457	172	59
3	1461	172	58
3	1463	173	59
3	1467	173	60
3	1474	173	59
3	1479	174	60
3	1484	174	59
3	1497	175	60
3	1501	175	59
3	1505	176	60
3	1561	185	59
3	1563	186	60
3	1577	192	59
3	1579	192	58
3	1581	192	57
3	1583	193	58
3	1585	193	59
3	1587	193	60
3	1590	193	59
3	1593	193	58
3	1596	194	59
3	1598	194	60
3	1600	194	59
3	1602	194	60
3	1608	194	59
3	1610	194	58
3	1612	194	57
3	1616	195	58
3	1618	195	59
3	1621	195	60
3	1622	195	59
3	1623	195	60
3	1630	196	59
3	1632	196	60
3	1634	196	59
3	1645	197	60
3	1647	197	59
3	1650	198	60
3	1663	202	59
3	1665	202	58
3	1669	203	59
3	1671	203	60
3	1683	204	59
3	1700	205	60
3	1708	205	59
3	1717	206	60
3	1722	206	59
3	1728	207	60
3	1747	212	59
3	1751	212	58
3	1753	213	59
3	1757	213	60
3	1760	213	59
3	1768	214	60
3	1770	214	59
3	1776	214	58
3	1780	214	57
3	1785	215	58
3	1790	216	59
3	1795	217	60
3	1813	222	59
3	1815	222	58
3	1817	222	57
3	1819	223	58
3	1825	223	57
3	1829	223	56
3	1830	224	57
3	1837	225	58
3	1842	225	57
3	1844	226	58
3	1848	227	59
3	1850	228	60
3	1853	228	59
3	1856	229	60
3	1875	232	59
3	1877	232	58
3	1879	232	57
3	1881	233	58
3	1886	233	57
3	1891	234	58
3	1902	235	59
3	1910	235	58
3	1915	236	59
3	1924	236	58
3	1926	237	59
3	1930	238	60
3	1949	242	59
3	1953	242	58
3	1955	243	59
3	1961	243	58
3	1969	244	59
3	1975	244	58
3	1980	245	59
3	1984	245	58
3	1986	246	59
3	1989	247	60
3	2009	252	59
3	2011	252	58
3	2015	253	59
3	2020	253	58
3	2023	253	57
3	2024	253	56
3	2026	254	57
3	2031	254	56
3	2034	255	57
3	2037	255	56
3	2039	256	57
3	2041	257	58
3	2044	257	57
3	2046	258	58
3	2049	258	57
3	2051	259	58
3	2055	260	59
3	2059	261	60
3	2081	262	59
3	2083	262	58
3	2088	263	59
3	2096	263	58
3	2098	264	59
3	2107	264	58
3	2111	265	59
3	2116	265	58
3	2118	265	57
3	2120	266	58
3	2124	266	57
3	2127	267	58
3	2131	268	59
3	2135	269	60
3	2153	272	59
3	2155	272	58
3	2157	272	57
3	2159	273	58
3	2166	273	57
3	2168	274	58
3	2179	275	59
3	2186	275	58
3	2188	275	57
3	2190	276	58
3	2198	276	57
3	2201	277	58
3	2206	278	59
3	2213	279	60
3	2229	282	59
3	2231	282	58
3	2233	282	57
3	2235	283	58
3	2243	283	57
3	2244	284	58
3	2249	284	57
3	2254	285	58
3	2260	285	57
3	2262	285	56
3	2263	286	57
3	2270	287	58
3	2275	288	59
3	2281	289	60
3	2297	292	59
3	2299	292	58
3	2301	292	57
3	2303	293	58
3	2313	294	59
3	2320	294	58
3	2326	295	59
3	2334	295	58
3	2335	296	59
3	2343	297	60
3	2348	297	59
3	2350	298	60
3	2367	302	59
3	2369	302	58
3	2371	302	57
3	2373	303	58
3	2383	304	59
3	2396	305	60
3	2404	305	59
3	2410	306	60
3	2412	306	59
3	2420	307	60
3	2423	307	59
3	2426	308	60
3	2443	312	59
3	2445	312	58
3	2447	312	57
3	2449	313	58
3	2455	313	57
3	2456	313	56
3	2457	314	57
3	2465	315	58
3	2474	315	57
3	2475	316	58
3	2482	316	57
3	2486	316	56
3	2487	317	57
3	2494	317	56
3	2495	317	55
3	2497	318	56
3	2503	319	57
3	2508	320	58
3	2513	321	59
3	2523	322	60
3	2533	322	59
3	2535	322	58
3	2537	322	57
3	2540	323	58
3	2547	323	57
3	2550	323	56
3	2552	324	57
3	2561	325	58
3	2566	325	57
3	2569	326	58
3	2574	326	57
3	2577	327	58
3	2581	328	59
3	2585	329	60
3	2605	332	59
3	2607	332	58
3	2609	332	57
3	2611	333	58
3	2620	334	59
3	2633	335	60
3	2642	335	59
3	2646	335	58
3	2652	336	59
3	2655	336	58
3	2658	336	57
3	2663	337	58
3	2667	338	59
3	2669	339	60
3	2687	342	59
3	2689	342	58
3	2691	342	57
3	2693	343	58
3	2699	343	57
3	2704	344	58
3	2714	345	59
3	2720	345	58
3	2723	346	59
3	2730	346	58
3	2733	347	59
3	2736	348	60
3	2755	352	59
3	2757	352	58
3	2759	352	57
3	2761	353	58
3	2766	353	57
3	2768	353	56
3	2769	353	55
3	2770	354	56
3	2774	355	57
3	2778	355	56
3	2782	356	57
3	2786	356	56
3	2788	356	55
3	2789	357	56
3	2792	358	57
3	2797	359	58
3	2803	360	59
3	2809	361	60
3	2827	362	59
3	2829	362	58
3	2831	362	57
3	2833	363	58
3	2839	363	57
3	2842	364	58
3	2848	364	57
3	2853	365	58
3	2859	365	57
3	2860	366	58
3	2866	366	57
3	2868	367	58
3	2873	368	59
3	2879	369	60
3	2895	372	59
3	2901	373	60
3	2916	373	59
3	2923	374	60
3	2935	375	59
3	2936	375	58
3	2940	376	59
3	2943	377	60
3	2961	382	59
3	2963	382	58
3	2967	383	59
3	2973	383	58
3	2981	384	59
3	2989	384	58
3	2993	385	59
3	2997	385	58
3	2999	386	59
3	3002	387	60
3	3021	392	59
3	3023	392	58
3	3025	392	57
3	3027	393	58
3	3034	393	57
3	3037	394	58
3	3047	395	59
3	3053	395	58
3	3054	396	59
3	3061	396	58
3	3065	397	59
3	3071	397	58
3	3072	398	59
3	3078	399	60
3	3099	402	59
3	3105	403	60
3	3117	403	59
3	3124	404	60
3	3129	404	59
3	3137	405	60
3	3139	405	59
3	3140	405	58
3	3146	406	59
3	3151	407	60
3	3169	412	59
3	3171	412	58
3	3173	412	57
3	3175	413	58
3	3180	413	57
3	3182	413	56
3	3183	413	55
3	3184	414	56
3	3188	414	55
3	3190	415	56
3	3195	415	55
3	3197	416	56
3	3201	417	57
3	3203	418	58
3	3207	418	57
3	3209	419	58
3	3213	420	59
3	3219	421	60
3	3237	422	59
3	3239	422	58
3	3244	423	59
3	3252	423	58
3	3254	423	57
3	3259	424	58
3	3269	425	59
3	3276	425	58
3	3278	426	59
3	3283	427	60
3	3287	427	59
3	3290	428	60
3	3311	432	59
3	3317	433	60
3	3351	435	59
3	3355	436	60
3	3373	442	59
3	3375	442	58
3	3379	443	59
3	3385	443	58
3	3391	443	57
3	3392	444	58
3	3397	444	57
3	3401	445	58
3	3404	445	57
3	3406	446	58
3	3409	447	59
3	3413	448	60
3	3433	452	59
3	3435	452	58
3	3439	453	59
3	3445	453	58
3	3447	453	57
3	3450	453	56
3	3451	454	57
3	3455	454	56
3	3458	455	57
3	3462	456	58
3	3467	457	59
3	3471	457	58
3	3473	457	57
3	3474	458	58
3	3477	458	57
3	3479	459	58
3	3483	460	59
3	3487	461	60
3	3509	462	59
3	3511	462	58
3	3516	463	59
3	3524	463	58
3	3528	464	59
3	3538	464	58
3	3542	465	59
3	3549	465	58
3	3551	466	59
3	3557	467	60
3	3577	472	59
3	3581	472	58
3	3583	473	59
3	3592	473	58
3	3595	474	59
3	3608	475	60
3	3619	475	59
3	3626	476	60
3	3627	476	59
3	3632	477	60
3	3651	482	59
3	3653	482	58
3	3655	482	57
3	3657	483	58
3	3666	484	59
3	3673	484	58
3	3680	485	59
3	3688	485	58
3	3690	486	59
3	3698	486	58
3	3703	487	59
3	3711	487	58
3	3712	488	59
3	3717	489	60
3	3737	492	59
3	3739	492	58
3	3743	493	59
3	3750	493	58
3	3753	493	57
3	3754	494	58
3	3760	494	57
3	3765	495	58
3	3772	495	57
3	3773	496	58
3	3781	497	59
3	3787	497	58
3	3790	497	57
3	3791	498	58
3	3796	499	59
3	3799	500	60
3	3819	502	59
3	3821	502	58
3	3825	503	59
3	3831	503	58
3	3839	504	59
3	3845	504	58
3	3850	505	59
3	3854	505	58
3	3856	506	59
3	3859	507	60
3	3877	512	59
3	3879	512	58
3	3881	512	57
3	3883	513	58
3	3888	513	57
3	3890	513	56
3	3893	514	57
3	3899	514	56
3	3902	515	57
3	3907	516	58
3	3910	516	57
3	3912	517	58
3	3914	518	59
3	3917	518	58
3	3919	519	59
3	3923	520	60
3	3947	522	59
3	3953	523	60
3	3957	523	59
3	3967	524	60
3	3977	524	59
3	3984	525	60
3	4005	532	59
3	4007	532	58
3	4011	533	59
3	4024	534	60
3	4042	535	59
3	4044	535	58
3	4048	536	59
3	4053	537	60
3	4069	542	59
3	4075	543	60
3	4082	543	59
3	4089	543	58
3	4092	544	59
3	4097	544	58
3	4104	545	59
3	4110	546	60
3	4137	552	59
3	4143	553	60
3	4150	553	59
3	4157	554	60
3	4166	554	59
3	4173	555	60
3	4174	555	59
3	4179	556	60
3	4197	562	59
3	4199	562	58
3	4201	562	57
3	4203	563	58
3	4209	563	57
3	4213	563	56
3	4214	564	57
3	4220	565	58
3	4223	565	57
3	4225	566	58
3	4228	566	57
3	4230	567	58
3	4232	568	59
3	4235	568	58
3	4237	569	59
3	4241	570	60
3	4261	572	59
3	4263	572	58
3	4265	572	57
3	4267	573	58
3	4273	573	57
3	4276	574	58
3	4282	574	57
3	4287	575	58
3	4293	575	57
3	4295	575	56
3	4296	576	57
3	4301	576	56
3	4303	577	57
3	4307	577	56
3	4309	578	57
3	4314	579	58
3	4319	580	59
3	4322	581	60
3	4341	582	59
3	4345	582	58
3	4348	583	59
3	4360	583	58
3	4361	584	59
3	4374	585	60
3	4382	585	59
3	4384	585	58
3	4390	586	59
3	4396	587	60
3	4415	592	59
3	4417	592	58
3	4419	592	57
3	4421	593	58
3	4431	594	59
3	4438	594	58
3	4444	595	59
3	4450	595	58
3	4452	595	57
3	4453	596	58
3	4459	596	57
3	4461	597	58
3	4466	598	59
3	4471	599	60
3	4487	602	59
3	4489	602	58
3	4491	602	57
3	4493	603	58
3	4498	603	57
3	4500	603	56
3	4501	603	55
3	4502	604	56
3	4506	604	55
3	4508	605	56
3	4512	605	55
3	4514	606	56
3	4518	606	55
3	4520	607	56
3	4523	608	57
3	4526	608	56
3	4528	609	57
3	4531	609	56
3	4533	610	57
3	4537	611	58
3	4547	612	59
3	4557	612	58
3	4559	612	57
3	4561	612	56
3	4563	613	57
3	4571	613	56
3	4574	614	57
3	4587	615	58
3	4597	615	57
3	4598	616	58
3	4605	616	57
3	4609	617	58
3	4615	617	57
3	4616	617	56
3	4618	618	57
3	4623	618	56
3	4625	619	57
3	4628	620	58
3	4633	621	59
3	4644	622	60
3	4655	622	59
3	4657	622	58
3	4659	622	57
3	4662	623	58
3	4668	623	57
3	4670	623	56
3	4674	624	57
3	4680	624	56
3	4684	625	57
3	4687	625	56
3	4689	626	57
3	4692	626	56
3	4694	627	57
3	4697	628	58
3	4701	629	59
3	4707	630	60
3	4725	632	59
3	4727	632	58
3	4731	633	59
3	4744	634	60
3	4752	634	59
3	4763	635	60
3	4765	635	59
3	4768	635	58
3	4773	636	59
3	4778	637	60
3	4795	642	59
3	4797	642	58
3	4801	643	59
3	4807	643	58
3	4809	643	57
3	4814	644	58
3	4819	644	57
3	4823	645	58
3	4827	645	57
3	4829	646	58
3	4832	647	59
3	4835	647	58
3	4837	648	59
3	4841	649	60
3	4861	652	59
3	4863	652	58
3	4867	653	59
3	4874	653	58
3	4879	654	59
3	4885	654	58
3	4891	655	59
3	4898	655	58
3	4900	655	57
3	4901	656	58
3	4907	657	59
3	4913	658	60
3	4929	662	59
3	4931	662	58
3	4933	662	57
3	4935	663	58
3	4940	663	57
3	4945	664	58
3	4953	664	57
3	4958	665	58
3	4967	666	59
3	4975	667	60
3	4993	672	59
3	4995	672	58
3	4997	672	57
3	4999	673	58
3	5004	673	57
3	5010	674	58
3	5016	674	57
3	5020	675	58
3	5024	675	57
3	5026	676	58
3	5029	676	57
3	5031	677	58
3	5033	678	59
3	5037	679	60
3	5055	682	59
3	5057	682	58
3	5059	682	57
3	5061	683	58
3	5066	683	57
3	5068	683	56
3	5071	684	57
3	5076	684	56
3	5079	685	57
3	5084	685	56
3	5086	686	57
3	5090	687	58
3	5092	688	59
3	5095	688	58
3	5097	689	59
3	5101	690	60
3	5121	692	59
3	5127	693	60
3	5139	693	59
3	5144	694	60
3	5161	696	59
3	5163	697	60
3	5177	702	59
3	5179	702	58
3	5181	702	57
3	5183	703	58
3	5188	703	57
3	5190	703	56
3	5191	704	57
3	5195	704	56
3	5196	705	57
3	5203	706	58
3	5207	707	59
3	5209	708	60
3	5212	708	59
3	5215	709	60
3	5216	709	59
3	5219	710	60
3	5241	712	59
3	5245	712	58
3	5247	713	59
3	5252	713	58
3	5256	713	57
3	5257	714	58
3	5262	714	57
3	5265	715	58
3	5270	715	57
3	5274	716	58
3	5279	716	57
3	5280	717	58
3	5285	718	59
3	5290	718	58
3	5293	719	59
3	5298	720	60
3	5321	722	59
3	5327	723	60
3	5333	723	59
3	5339	723	58
3	5343	724	59
3	5349	724	58
3	5356	725	59
3	5361	726	60
3	5366	726	59
3	5370	727	60
3	5389	732	59
3	5391	732	58
3	5393	732	57
3	5395	733	58
3	5401	733	57
3	5402	733	56
3	5403	734	57
3	5408	734	56
3	5412	735	57
3	5418	736	58
3	5424	736	57
3	5428	737	58
3	5433	738	59
3	5438	738	58
3	5441	739	59
3	5447	740	60
3	5463	742	59
3	5465	742	58
3	5467	742	57
3	5469	743	58
3	5474	743	57
3	5476	743	56
3	5477	744	57
3	5485	745	58
3	5492	746	59
3	5496	747	60
3	5517	752	59
3	5519	752	58
3	5523	753	59
3	5528	753	58
3	5532	753	57
3	5534	754	58
3	5538	754	57
3	5544	755	58
3	5549	755	57
3	5552	756	58
3	5557	757	59
3	5561	757	58
3	5563	758	59
3	5567	759	60
3	5587	762	59
3	5589	762	58
3	5593	763	59
3	5598	763	58
3	5600	763	57
3	5603	764	58
3	5608	764	57
3	5610	765	58
3	5613	765	57
3	5615	766	58
3	5620	767	59
3	5624	768	60
3	5628	768	59
3	5632	769	60
3	5651	772	59
3	5653	772	58
3	5655	772	57
3	5657	773	58
3	5663	773	57
3	5668	774	58
3	5678	775	59
3	5686	776	60
3	5693	776	59
3	5700	777	60
3	5703	777	59
3	5706	778	60
3	5723	782	59
3	5725	782	58
3	5729	783	59
3	5735	783	58
3	5743	784	59
3	5752	784	58
3	5756	785	59
3	5760	785	58
3	5762	786	59
3	5765	787	60
3	5783	792	59
3	5785	792	58
3	5789	793	59
3	5795	793	58
3	5801	794	59
3	5810	795	60
3	5822	798	59
3	5823	799	60
3	5839	802	59
3	5845	803	60
3	5852	803	59
3	5862	804	60
3	5865	804	59
3	5871	805	60
3	5891	812	59
3	5893	812	58
3	5895	812	57
3	5897	813	58
3	5901	813	57
3	5904	814	58
3	5910	814	57
3	5911	814	56
3	5915	815	57
3	5921	816	58
3	5925	816	57
3	5928	817	58
3	5930	818	59
3	5933	818	58
3	5935	819	59
3	5939	820	60
3	5959	822	59
3	5961	822	58
3	5963	822	57
3	5965	823	58
3	5971	823	57
3	5973	823	56
3	5975	824	57
3	5982	825	58
3	5987	825	57
3	5990	826	58
3	5996	827	59
3	5998	828	60
3	6001	828	59
3	6004	829	60
3	6023	832	59
3	6025	832	58
3	6029	833	59
3	6039	834	60
3	6047	834	59
3	6048	834	58
3	6056	835	59
3	6061	835	58
3	6063	836	59
3	6067	837	60
3	6085	842	59
3	6087	842	58
3	6091	843	59
3	6101	844	60
3	6108	844	59
3	6109	844	58
3	6117	845	59
3	6119	845	58
3	6122	845	57
3	6124	846	58
3	6127	846	57
3	6129	847	58
3	6133	848	59
3	6137	849	60
3	6155	852	59
3	6157	852	58
3	6161	853	59
3	6171	854	60
3	6178	854	59
3	6179	854	58
3	6186	855	59
3	6188	855	58
3	6192	855	57
3	6193	856	58
3	6197	857	59
3	6203	858	60
3	6219	862	59
3	6221	862	58
3	6223	862	57
3	6225	863	58
3	6233	864	59
3	6238	864	58
3	6242	865	59
3	6248	865	58
3	6250	866	59
3	6254	866	58
3	6256	867	59
3	6259	867	58
3	6261	868	59
3	6265	869	60
3	6285	872	59
3	6291	873	60
3	6320	876	59
3	6321	877	60
3	6335	882	59
3	6341	883	60
3	6348	883	59
3	6356	883	58
3	6358	884	59
3	6362	884	58
3	6369	885	59
3	6373	886	60
3	6395	892	59
3	6397	892	58
3	6401	893	59
3	6406	893	58
3	6414	894	59
3	6424	895	60
3	6428	895	59
3	6430	895	58
3	6433	896	59
3	6435	897	60
3	6455	902	59
3	6461	903	60
3	6467	903	59
3	6470	903	58
3	6477	904	59
3	6485	905	60
3	6487	905	59
3	6491	906	60
3	6511	912	59
3	6513	912	58
3	6515	912	57
3	6517	913	58
3	6522	913	57
3	6524	913	56
3	6525	914	57
3	6532	915	58
3	6536	915	57
3	6539	916	58
3	6542	916	57
3	6544	917	58
3	6546	918	59
3	6549	918	58
3	6551	919	59
3	6555	920	60
3	6575	922	59
3	6579	922	58
3	6581	923	59
3	6587	923	58
3	6593	923	57
3	6594	924	58
3	6600	925	59
3	6606	925	58
3	6610	926	59
3	6614	926	58
3	6615	927	59
3	6619	928	60
3	6639	932	59
3	6641	932	58
3	6645	933	59
3	6651	933	58
3	6654	934	59
3	6659	934	58
3	6663	935	59
3	6670	936	60
3	6676	936	59
3	6683	937	60
3	6686	937	59
3	6690	937	58
3	6692	938	59
3	6693	938	58
3	6695	939	59
3	6699	940	60
3	6719	942	59
3	6721	942	58
3	6725	943	59
3	6737	944	60
3	6744	944	59
3	6754	945	60
3	6756	945	59
3	6762	946	60
3	6764	946	59
3	6768	947	60
3	6785	952	59
3	6787	952	58
3	6789	952	57
3	6791	953	58
3	6798	953	57
3	6799	954	58
3	6805	954	57
3	6811	955	58
3	6817	955	57
3	6819	956	58
3	6824	956	57
3	6827	957	58
3	6831	958	59
3	6837	959	60
3	6853	962	59
3	6857	962	58
3	6859	963	59
3	6864	963	58
3	6870	964	59
3	6877	965	60
3	6889	967	59
3	6892	968	60
3	6893	968	59
3	6895	969	60
3	6917	972	59
3	6922	973	60
3	6926	973	59
3	6934	974	60
3	6938	974	59
3	6945	975	60
3	6952	976	59
3	6955	977	60
3	6973	982	59
3	6975	982	58
3	6977	982	57
3	6979	983	58
3	6988	983	57
3	6989	984	58
3	6998	985	59
3	7003	986	60
3	7008	986	59
3	7013	987	60
3	7014	987	59
3	7019	988	60
3	7020	988	59
3	7024	989	60
3	7026	989	59
3	7029	990	60
3	7049	992	59
3	7055	993	60
3	7082	995	59
3	7088	996	60
3	7095	997	59
3	7097	998	60
3	7111	1002	59
3	7115	1002	58
3	7117	1003	59
3	7127	1004	60
3	7135	1004	59
3	7143	1005	60
3	7145	1005	59
3	7150	1006	60
3	7151	1006	59
3	7154	1007	60
3	7171	1012	59
3	7173	1012	58
3	7177	1013	59
3	7183	1013	58
3	7187	1013	57
3	7188	1014	58
3	7192	1014	57
3	7194	1015	58
3	7198	1016	59
3	7202	1016	58
3	7204	1017	59
3	7209	1018	60
3	7231	1022	59
3	7233	1022	58
3	7237	1023	59
3	7248	1024	60
3	7268	1025	59
3	7275	1026	60
3	7278	1026	59
3	7280	1026	58
3	7283	1027	59
3	7289	1028	60
3	7307	1032	59
3	7309	1032	58
3	7311	1032	57
3	7313	1033	58
3	7321	1034	59
3	7327	1034	58
3	7331	1035	59
3	7337	1036	60
3	7341	1036	59
3	7343	1037	60
3	7344	1037	59
3	7348	1038	60
3	7367	1042	59
3	7369	1042	58
3	7371	1042	57
3	7373	1043	58
3	7377	1043	57
3	7381	1044	58
3	7388	1044	57
3	7391	1045	58
3	7395	1045	57
3	7398	1046	58
3	7401	1046	57
3	7403	1047	58
3	7405	1048	59
3	7409	1049	60
3	7427	1052	59
3	7429	1052	58
3	7433	1053	59
3	7442	1053	58
3	7443	1054	59
3	7454	1055	60
3	7463	1056	59
3	7465	1057	60
3	7466	1057	59
3	7469	1058	60
3	7487	1062	59
3	7489	1062	58
3	7493	1063	59
3	7499	1063	58
3	7505	1064	59
3	7510	1064	58
3	7513	1065	59
3	7518	1065	58
3	7520	1066	59
3	7522	1067	60
3	7525	1067	59
3	7528	1068	60
3	7547	1072	59
3	7549	1072	58
3	7553	1073	59
3	7563	1074	60
3	7571	1074	59
3	7578	1075	60
3	7585	1075	59
3	7587	1076	60
3	7588	1076	59
3	7592	1077	60
3	7593	1077	59
3	7595	1078	60
3	7615	1082	59
3	7617	1082	58
3	7619	1082	57
3	7621	1083	58
3	7626	1083	57
3	7628	1083	56
3	7630	1084	57
3	7637	1085	58
3	7642	1085	57
3	7646	1086	58
3	7651	1086	57
3	7652	1087	58
3	7658	1088	59
3	7661	1088	58
3	7663	1089	59
3	7667	1090	60
3	7687	1092	59
3	7689	1092	58
3	7693	1093	59
3	7698	1093	58
3	7702	1093	57
3	7703	1094	58
3	7709	1094	57
3	7711	1095	58
3	7719	1096	59
3	7725	1097	60
3	7730	1097	59
3	7733	1098	60
3	7751	1102	59
3	7753	1102	58
3	7755	1102	57
3	7757	1103	58
3	7761	1103	57
3	7765	1104	58
3	7769	1104	57
3	7771	1105	58
3	7775	1105	57
3	7778	1106	58
3	7782	1106	57
3	7786	1107	58
3	7789	1107	57
3	7790	1108	58
3	7793	1108	57
3	7795	1109	58
3	7799	1110	59
3	7803	1111	60
3	7823	1112	59
3	7825	1112	58
3	7830	1113	59
3	7835	1113	58
3	7839	1113	57
3	7841	1114	58
3	7848	1115	59
3	7854	1115	58
3	7856	1116	59
3	7861	1117	60
3	7883	1122	59
3	7885	1122	58
3	7887	1122	57
3	7889	1123	58
3	7894	1123	57
3	7896	1123	56
3	7898	1124	57
3	7905	1125	58
3	7911	1125	57
3	7916	1126	58
3	7922	1126	57
3	7924	1127	58
3	7926	1128	59
3	7929	1128	58
3	7931	1129	59
3	7935	1130	60
3	7955	1132	59
3	7957	1132	58
3	7959	1132	57
3	7961	1133	58
3	7968	1134	59
3	7979	1135	60
3	7983	1135	59
3	7988	1136	60
3	7990	1136	59
3	7994	1137	60
3	7996	1137	59
3	7999	1138	60
3	8015	1142	59
3	8017	1142	58
3	8021	1143	59
3	8025	1143	58
3	8029	1144	59
3	8034	1144	58
3	8036	1145	59
3	8045	1146	60
3	8065	1148	59
3	8069	1149	60
3	8089	1152	59
3	8091	1152	58
3	8095	1153	59
3	8107	1154	60
3	8123	1155	59
3	8125	1155	58
3	8127	1156	59
3	8129	1157	60
3	8145	1162	59
3	8147	1162	58
3	8151	1163	59
3	8156	1163	58
3	8160	1163	57
3	8161	1164	58
3	8167	1165	59
3	8179	1166	60
3	8188	1166	59
3	8192	1167	60
3	8193	1167	59
3	8198	1168	60
3	8199	1168	59
3	8202	1169	60
3	8223	1172	59
3	8225	1172	58
3	8227	1172	57
3	8229	1173	58
3	8234	1173	57
3	8238	1173	56
3	8239	1174	57
3	8244	1174	56
3	8247	1175	57
3	8252	1176	58
3	8256	1177	59
3	8258	1178	60
3	8261	1178	59
3	8264	1179	60
3	8283	1182	59
3	8285	1182	58
3	8287	1182	57
3	8289	1183	58
3	8293	1183	57
3	8295	1183	56
3	8296	1184	57
3	8300	1185	58
3	8304	1185	57
3	8308	1186	58
3	8312	1186	57
3	8314	1186	56
3	8316	1187	57
3	8321	1188	58
3	8327	1189	59
3	8333	1190	60
3	8353	1192	59
3	8355	1192	58
3	8359	1193	59
3	8368	1194	60
3	8373	1194	59
3	8379	1194	58
3	8382	1195	59
3	8388	1195	58
3	8389	1196	59
3	8393	1197	60
3	8413	1202	59
3	8415	1202	58
3	8419	1203	59
3	8428	1204	60
3	8431	1204	59
3	8437	1205	60
3	8442	1205	59
3	8445	1206	60
3	8451	1207	59
3	8456	1208	60
3	8461	1209	59
3	8463	1210	60
3	8479	1212	59
3	8481	1212	58
3	8483	1212	57
3	8485	1213	58
3	8494	1214	59
3	8507	1215	60
3	8522	1216	59
3	8526	1217	60
3	8527	1217	59
3	8529	1218	60
3	8545	1222	59
3	8551	1223	60
3	8558	1223	59
3	8565	1223	58
3	8568	1224	59
3	8573	1224	58
3	8578	1225	59
3	8584	1226	60
3	8607	1232	59
3	8609	1232	58
3	8613	1233	59
3	8617	1233	58
3	8621	1234	59
3	8627	1234	58
3	8629	1235	59
3	8638	1236	60
3	8667	1242	59
3	8669	1242	58
3	8671	1242	57
3	8673	1243	58
3	8678	1243	57
3	8680	1243	56
3	8683	1244	57
3	8688	1244	56
3	8691	1245	57
3	8696	1246	58
3	8700	1247	59
3	8702	1248	60
3	8705	1248	59
3	8708	1249	60
3	8727	1252	59
3	8729	1252	58
3	8731	1252	57
3	8733	1253	58
3	8740	1253	57
3	8741	1254	58
3	8746	1254	57
3	8752	1255	58
3	8756	1255	57
3	8759	1256	58
3	8764	1256	57
3	8766	1257	58
3	8770	1257	57
3	8773	1258	58
3	8779	1259	59
3	8783	1260	60
3	8799	1262	59
3	8801	1262	58
3	8803	1262	57
3	8805	1263	58
3	8813	1263	57
3	8814	1264	58
3	8823	1265	59
3	8831	1266	60
3	8838	1266	59
3	8841	1266	58
3	8845	1267	59
3	8846	1267	58
3	8852	1268	59
3	8854	1268	58
3	8857	1269	59
3	8861	1270	60
3	8879	1272	59
3	8883	1272	58
3	8885	1273	59
3	8890	1273	58
3	8895	1274	59
3	8904	1275	60
3	8909	1275	59
3	8911	1275	58
3	8916	1276	59
3	8920	1277	60
3	8945	1282	59
3	8947	1282	58
3	8951	1283	59
3	8956	1283	58
3	8962	1284	59
3	8972	1285	60
3	8988	1287	59
3	8989	1288	60
3	9005	1292	59
3	9009	1292	58
3	9011	1293	59
3	9015	1293	58
3	9019	1294	59
3	9026	1295	60
3	9036	1296	59
3	9040	1297	60
3	9061	1302	59
3	9063	1302	58
3	9065	1302	57
3	9067	1303	58
3	9074	1304	59
3	9079	1304	58
3	9084	1305	59
3	9090	1305	58
3	9092	1306	59
3	9098	1306	58
3	9100	1306	57
3	9102	1307	58
3	9106	1307	57
3	9109	1308	58
3	9113	1309	59
3	9115	1310	60
3	9135	1312	59
3	9137	1312	58
3	9139	1312	57
3	9141	1313	58
3	9148	1314	59
3	9156	1314	58
3	9161	1315	59
3	9166	1315	58
3	9169	1315	57
3	9170	1316	58
3	9173	1316	57
3	9175	1317	58
3	9179	1318	59
3	9183	1319	60
3	9199	1322	59
3	9203	1322	58
3	9205	1323	59
3	9211	1323	58
3	9219	1324	59
3	9226	1324	58
3	9231	1325	59
3	9235	1326	60
3	9251	1332	59
3	9253	1332	58
3	9255	1332	57
3	9257	1333	58
3	9261	1333	57
3	9265	1334	58
3	9269	1334	57
3	9271	1335	58
3	9277	1336	59
3	9282	1336	58
3	9288	1337	59
3	9293	1337	58
3	9294	1337	57
3	9295	1338	58
3	9299	1339	59
3	9305	1340	60
3	9323	1342	59
3	9325	1342	58
3	9327	1342	57
3	9329	1343	58
3	9338	1343	57
3	9339	1344	58
3	9348	1345	59
3	9352	1345	58
3	9354	1346	59
3	9359	1346	58
3	9360	1347	59
3	9364	1347	58
3	9367	1348	59
3	9373	1349	60
3	9391	1352	59
3	9393	1352	58
3	9397	1353	59
3	9401	1353	58
3	9404	1353	57
3	9406	1354	58
3	9413	1354	57
3	9415	1355	58
3	9420	1355	57
3	9422	1356	58
3	9424	1357	59
3	9427	1357	58
3	9429	1358	59
3	9433	1359	60
3	9455	1362	59
3	9457	1362	58
3	9461	1363	59
3	9464	1363	58
3	9469	1364	59
3	9478	1365	60
3	9507	1372	59
3	9513	1373	60
3	9518	1373	59
3	9521	1373	58
3	9527	1374	59
3	9529	1374	58
3	9535	1375	59
3	9538	1376	60
3	9545	1376	59
3	9549	1377	60
3	9551	1377	59
3	9554	1378	60
3	9577	1382	59
3	9579	1382	58
3	9583	1383	59
3	9592	1384	60
3	9609	1386	59
3	9612	1387	60
3	9613	1387	59
3	9615	1388	60
3	9631	1392	59
3	9633	1392	58
3	9637	1393	59
3	9643	1393	58
3	9649	1394	59
3	9659	1395	60
3	9679	1402	59
3	9681	1402	58
3	9683	1402	57
3	9685	1403	58
3	9690	1403	57
3	9693	1404	58
3	9697	1404	57
3	9700	1405	58
3	9706	1406	59
3	9710	1406	58
3	9713	1407	59
3	9716	1407	58
3	9718	1408	59
3	9721	1408	58
3	9723	1409	59
3	9727	1410	60
3	9749	1412	59
3	9751	1412	58
3	9755	1413	59
3	9760	1413	58
3	9763	1413	57
3	9764	1413	56
3	9765	1414	57
3	9770	1414	56
3	9772	1415	57
3	9775	1415	56
3	9777	1416	57
3	9780	1417	58
3	9784	1418	59
3	9788	1418	58
3	9791	1419	59
3	9795	1420	60
3	9815	1422	59
3	9817	1422	58
3	9819	1422	57
3	9821	1423	58
3	9828	1424	59
3	9834	1424	58
3	9835	1424	57
3	9840	1425	58
3	9844	1425	57
3	9846	1425	56
3	9847	1426	57
3	9850	1426	56
3	9852	1427	57
3	9855	1427	56
3	9857	1428	57
3	9861	1429	58
3	9865	1430	59
3	9867	1431	60
3	9885	1432	59
3	9887	1432	58
3	9889	1432	57
3	9892	1433	58
3	9902	1434	59
3	9908	1434	58
3	9915	1435	59
3	9923	1436	60
3	9930	1436	59
3	9937	1437	60
3	9942	1438	59
3	9943	1439	60
3	9959	1442	59
3	9961	1442	58
3	9965	1443	59
3	9973	1443	58
3	9974	1444	59
3	9982	1444	58
3	9986	1445	59
3	9995	1445	58
3	9996	1446	59
3	9999	1446	58
3	10001	1447	59
3	10005	1448	60
3	10023	1452	59
3	10025	1452	58
3	10029	1453	59
3	10035	1453	58
3	10037	1453	57
3	10042	1454	58
3	10046	1454	57
3	10049	1455	58
3	10053	1456	59
3	10056	1456	58
3	10058	1457	59
3	10061	1457	58
3	10063	1458	59
3	10067	1459	60
3	10087	1462	59
3	10089	1462	58
3	10091	1462	57
3	10093	1463	58
3	10102	1464	59
3	10114	1465	60
3	10122	1465	59
3	10128	1466	60
3	10130	1466	59
3	10131	1466	58
3	10136	1467	59
3	10137	1467	58
3	10140	1468	59
3	10143	1469	60
3	10161	1472	59
3	10165	1472	58
3	10167	1473	59
3	10175	1473	58
3	10176	1474	59
3	10181	1474	58
3	10182	1474	57
3	10186	1475	58
3	10191	1475	57
3	10193	1476	58
3	10196	1476	57
3	10197	1477	58
3	10201	1477	57
3	10203	1477	56
3	10205	1478	57
3	10209	1479	58
3	10213	1480	59
3	10215	1481	60
3	10235	1482	59
3	10239	1482	58
3	10242	1483	59
3	10252	1484	60
3	10270	1485	59
3	10273	1485	58
3	10276	1486	59
3	10280	1487	60
3	10299	1492	59
3	10301	1492	58
3	10303	1492	57
3	10305	1493	58
3	10309	1493	57
3	10311	1493	56
3	10312	1494	57
3	10319	1495	58
3	10329	1496	59
3	10335	1496	58
3	10338	1496	57
3	10339	1497	58
3	10344	1498	59
3	10347	1498	58
3	10349	1499	59
3	10353	1500	60
3	10373	1502	59
3	10375	1502	58
3	10379	1503	59
3	10387	1503	58
3	10388	1504	59
3	10396	1504	58
3	10401	1505	59
3	10405	1505	58
3	10408	1506	59
3	10411	1506	58
3	10412	1507	59
3	10415	1507	58
3	10417	1508	59
3	10423	1509	60
3	10441	1512	59
3	10443	1512	58
3	10445	1512	57
3	10447	1513	58
3	10451	1513	57
3	10454	1514	58
3	10459	1514	57
3	10460	1514	56
3	10464	1515	57
3	10471	1516	58
3	10480	1517	59
3	10484	1517	58
3	10485	1518	59
3	10489	1518	58
3	10491	1519	59
3	10495	1520	60
3	10515	1522	59
3	10517	1522	58
3	10521	1523	59
3	10531	1524	60
3	10537	1524	59
3	10544	1525	60
3	10545	1525	59
3	10547	1525	58
3	10551	1526	59
3	10553	1526	58
3	10555	1526	57
3	10557	1527	58
3	10561	1528	59
3	10565	1529	60
3	10583	1532	59
3	10585	1532	58
3	10587	1532	57
3	10589	1533	58
3	10593	1533	57
3	10595	1533	56
3	10596	1534	57
3	10603	1534	56
3	10605	1535	57
3	10612	1536	58
3	10616	1537	59
3	10618	1538	60
3	10621	1538	59
3	10624	1539	60
3	10643	1542	59
3	10645	1542	58
3	10647	1542	57
3	10649	1543	58
3	10656	1544	59
3	10662	1544	58
3	10663	1544	57
3	10668	1545	58
3	10672	1545	57
3	10674	1546	58
3	10678	1546	57
3	10680	1547	58
3	10683	1547	57
3	10685	1548	58
3	10689	1549	59
3	10693	1550	60
3	10711	1552	59
3	10713	1552	58
3	10717	1553	59
3	10730	1554	60
3	10752	1556	59
3	10754	1557	60
3	10755	1557	59
3	10757	1558	60
3	10773	1562	59
3	10775	1562	58
3	10777	1562	57
3	10779	1563	58
3	10786	1564	59
3	10799	1565	60
3	10814	1566	59
3	10815	1566	58
3	10819	1567	59
3	10823	1568	60
3	10839	1572	59
3	10843	1572	58
3	10845	1573	59
3	10850	1573	58
3	10854	1573	57
3	10855	1574	58
3	10860	1574	57
3	10862	1575	58
3	10868	1575	57
3	10872	1576	58
3	10876	1577	59
3	10880	1577	58
3	10883	1578	59
3	10887	1579	60
3	10909	1582	59
3	10911	1582	58
3	10915	1583	59
3	10920	1583	58
3	10924	1583	57
3	10925	1584	58
3	10931	1584	57
3	10935	1585	58
3	10939	1585	57
3	10942	1586	58
3	10946	1587	59
3	10949	1587	58
3	10951	1588	59
3	10955	1589	60
3	10975	1592	59
3	10979	1592	58
3	10981	1593	59
3	10986	1593	58
3	10992	1594	59
3	11000	1594	58
3	11004	1595	59
3	11008	1595	58
3	11011	1596	59
3	11013	1597	60
3	11031	1602	59
3	11033	1602	58
3	11035	1602	57
3	11037	1603	58
3	11042	1603	57
3	11048	1604	58
3	11053	1604	57
3	11057	1605	58
3	11060	1605	57
3	11062	1606	58
3	11065	1606	57
3	11067	1607	58
3	11069	1608	59
3	11073	1609	60
3	11093	1612	59
3	11095	1612	58
3	11099	1613	59
3	11107	1614	60
3	11125	1615	59
3	11132	1616	60
3	11135	1616	59
3	11139	1617	60
3	11170	1623	59
3	11179	1624	60
3	11183	1624	59
3	11191	1625	60
3	11198	1626	59
3	11201	1627	60
3	11219	1632	59
3	11225	1633	60
3	11260	1636	59
3	11262	1637	60
3	11263	1637	59
3	11265	1638	60
3	11294	1643	59
3	11298	1643	58
3	11304	1644	59
3	11306	1644	58
3	11312	1645	59
3	11316	1646	60
3	11322	1647	59
3	11325	1648	60
3	11343	1652	59
3	11349	1653	60
3	11356	1653	59
3	11360	1653	58
3	11365	1654	59
3	11367	1654	58
3	11372	1655	59
3	11376	1656	60
3	11382	1657	59
3	11385	1658	60
3	11403	1662	59
3	11405	1662	58
3	11407	1662	57
3	11409	1663	58
3	11413	1663	57
3	11416	1664	58
3	11426	1665	59
3	11432	1665	58
3	11438	1666	59
3	11443	1666	58
3	11446	1667	59
3	11450	1667	58
3	11451	1668	59
3	11455	1669	60
3	11473	1672	59
3	11475	1672	58
3	11479	1673	59
3	11484	1673	58
3	11488	1674	59
3	11495	1675	60
3	11507	1677	59
3	11510	1678	60
3	11529	1682	59
3	11531	1682	58
3	11535	1683	59
3	11541	1683	58
3	11543	1683	57
3	11546	1683	56
3	11547	1684	57
3	11550	1684	56
3	11552	1685	57
3	11557	1685	56
3	11559	1686	57
3	11562	1687	58
3	11567	1688	59
3	11573	1689	60
3	11595	1692	59
3	11597	1692	58
3	11601	1693	59
3	11605	1693	58
3	11611	1694	59
3	11613	1694	58
3	11617	1695	59
3	11621	1695	58
3	11624	1696	59
3	11627	1697	60
3	11633	1697	59
3	11637	1698	60
3	11639	1698	59
3	11641	1699	60
3	11661	1702	59
3	11665	1702	58
3	11667	1703	59
3	11678	1704	60
3	11684	1704	59
3	11691	1705	60
3	11693	1705	59
3	11698	1706	60
3	11699	1706	59
3	11702	1707	60
3	11721	1712	59
3	11727	1713	60
3	11738	1713	59
3	11743	1714	60
3	11744	1714	59
3	11745	1714	58
3	11752	1715	59
3	11757	1715	58
3	11758	1716	59
3	11761	1716	58
3	11763	1717	59
3	11767	1718	60
3	11789	1722	59
3	11791	1722	58
3	11793	1722	57
3	11795	1723	58
3	11800	1723	57
3	11801	1724	58
3	11806	1724	57
3	11810	1725	58
3	11815	1725	57
3	11819	1726	58
3	11825	1726	57
3	11827	1726	56
3	11828	1727	57
3	11832	1728	58
3	11836	1728	57
3	11839	1729	58
3	11843	1730	59
3	11845	1731	60
3	11863	1732	59
3	11865	1732	58
3	11867	1732	57
3	11870	1733	58
3	11877	1734	59
3	11890	1735	60
3	11898	1735	59
3	11902	1735	58
3	11907	1736	59
3	11910	1736	58
3	11913	1736	57
3	11915	1737	58
3	11921	1738	59
3	11923	1739	60
3	11941	1742	59
3	11947	1743	60
3	11983	1745	59
3	11988	1746	60
3	11990	1746	59
3	11994	1747	60
3	12013	1752	59
3	12019	1753	60
3	12026	1753	59
3	12030	1753	58
3	12037	1754	59
3	12041	1754	58
3	12046	1755	59
3	12051	1756	60
3	12071	1762	59
3	12073	1762	58
3	12075	1762	57
3	12077	1763	58
3	12084	1764	59
3	12090	1764	58
3	12091	1764	57
3	12096	1765	58
3	12099	1765	57
3	12101	1766	58
3	12105	1766	57
3	12106	1767	58
3	12109	1767	57
3	12111	1768	58
3	12115	1769	59
3	12123	1770	60
3	12139	1772	59
3	12141	1772	58
3	12145	1773	59
3	12150	1773	58
3	12155	1774	59
3	12161	1774	58
3	12162	1774	57
3	12167	1775	58
3	12170	1775	57
3	12172	1776	58
3	12176	1777	59
3	12180	1777	58
3	12183	1778	59
3	12187	1779	60
3	12207	1782	59
3	12209	1782	58
3	12213	1783	59
3	12218	1783	58
3	12222	1783	57
3	12223	1784	58
3	12231	1784	57
3	12234	1785	58
3	12240	1786	59
3	12243	1787	60
3	12265	1792	59
3	12267	1792	58
3	12271	1793	59
3	12275	1793	58
3	12278	1793	57
3	12280	1794	58
3	12287	1795	59
3	12290	1795	58
3	12294	1795	57
3	12296	1796	58
3	12299	1797	59
3	12303	1798	60
4	0	0	0
5	0	0	0
5	162	2	59
5	168	3	60
5	169	3	59
5	172	3	58
5	181	4	59
5	183	4	60
5	196	5	59
5	202	6	60
5	224	12	59
5	228	12	58
5	230	13	59
5	234	13	60
5	235	13	59
5	238	13	58
5	241	13	57
5	244	14	58
5	245	14	59
5	247	14	60
5	249	14	59
5	255	14	58
5	262	15	59
5	263	15	60
5	264	15	59
5	267	15	60
5	275	16	59
5	276	16	60
5	287	17	59
5	289	18	60
5	304	22	59
5	310	23	60
5	315	23	59
5	317	23	58
5	325	24	59
5	327	24	60
5	331	24	59
5	334	24	58
5	341	25	59
5	343	25	60
5	345	25	59
5	353	26	60
5	355	26	59
5	366	27	60
5	399	33	59
5	409	34	60
5	415	34	59
5	427	35	60
5	435	35	59
5	443	36	60
5	476	42	59
5	482	43	60
5	498	44	59
5	505	44	58
5	512	45	59
5	516	45	60
5	517	45	59
5	527	46	60
5	529	46	59
5	541	47	60
5	566	52	59
5	572	53	60
5	577	53	59
5	582	53	58
5	587	54	59
5	591	54	60
5	597	54	59
5	605	55	60
5	610	55	59
5	613	55	58
5	622	56	59
5	624	56	60
5	635	57	59
5	639	58	60
5	669	63	59
5	679	64	60
5	726	72	59
5	732	73	60
5	777	77	59
5	779	78	60
5	794	82	59
5	800	83	60
5	808	83	59
5	819	84	60
5	824	84	59
5	832	85	60
5	854	92	59
5	860	93	60
5	865	93	59
5	873	94	60
5	910	96	59
5	920	97	60
5	922	97	59
5	927	98	60
5	961	103	59
5	972	104	60
5	1006	112	59
5	1012	113	60
5	1017	113	59
5	1019	113	58
5	1027	114	59
5	1029	114	60
5	1033	114	59
5	1043	115	60
5	1046	115	59
5	1051	115	58
5	1057	116	59
5	1061	116	60
5	1070	117	59
5	1075	118	60
5	1096	122	59
5	1102	123	60
5	1152	127	59
5	1155	128	60
5	1183	133	59
5	1194	134	60
5	1215	135	59
5	1221	136	60
5	1229	137	59
5	1232	138	60
5	1250	142	59
5	1254	142	58
5	1256	143	59
5	1260	143	60
5	1264	143	59
5	1268	143	58
5	1271	144	59
5	1274	144	60
5	1276	144	59
5	1282	144	58
5	1288	145	59
5	1289	145	60
5	1292	145	59
5	1298	146	60
5	1300	146	59
5	1309	147	60
5	1324	152	59
5	1328	152	58
5	1330	153	59
5	1334	153	60
5	1344	154	59
5	1351	154	58
5	1354	154	57
5	1361	155	58
5	1365	155	59
5	1366	155	60
5	1371	155	59
5	1373	156	60
5	1377	156	59
5	1380	156	60
5	1387	157	59
5	1390	158	60
5	1408	162	59
5	1414	163	60
5	1419	163	59
5	1428	164	60
5	1437	164	59
5	1440	165	60
5	1458	172	59
5	1462	172	58
5	1464	173	59
5	1468	173	60
5	1472	173	59
5	1480	174	60
5	1483	174	59
5	1491	174	58
5	1496	175	59
5	1499	175	60
5	1503	176	59
5	1508	177	60
5	1522	182	59
5	1528	183	60
5	1536	183	59
5	1547	184	60
5	1551	184	59
5	1560	185	60
5	1589	193	59
5	1599	194	60
5	1626	195	59
5	1636	196	60
5	1664	202	59
5	1670	203	60
5	1693	204	59
5	1704	205	60
5	1729	207	59
5	1733	208	60
5	1748	212	59
5	1754	213	60
5	1759	213	59
5	1762	213	58
5	1769	214	59
5	1771	214	60
5	1784	215	59
5	1789	216	60
5	1814	222	59
5	1818	222	58
5	1820	223	59
5	1822	223	60
5	1831	224	59
5	1838	225	60
5	1852	228	59
5	1855	229	60
5	1858	229	59
5	1859	230	60
5	1885	233	59
5	1894	234	60
5	1912	235	59
5	1920	236	60
5	1929	237	59
5	1932	238	60
5	1954	242	59
5	1959	243	60
5	1960	243	59
5	1963	243	58
5	1970	244	59
5	1971	244	60
5	1974	244	59
5	1981	245	60
5	1982	245	59
5	1987	246	60
5	2008	252	59
5	2012	252	58
5	2014	253	59
5	2017	253	60
5	2025	254	59
5	2033	255	60
5	2040	256	59
5	2042	257	60
5	2048	258	59
5	2052	259	60
5	2061	261	59
5	2069	262	60
5	2080	262	59
5	2087	263	60
5	2105	264	59
5	2113	265	60
5	2115	265	59
5	2121	266	60
5	2123	266	59
5	2128	267	60
5	2204	277	59
5	2208	278	60
5	2234	282	59
5	2238	283	60
5	2267	286	59
5	2272	287	60
5	2278	288	59
5	2282	289	60
5	2298	292	59
5	2304	293	60
5	2322	294	59
5	2330	295	60
5	2351	298	59
5	2353	299	60
5	2368	302	59
5	2374	303	60
5	2391	304	59
5	2400	305	60
5	2428	308	59
5	2429	309	60
5	2448	312	59
5	2452	313	60
5	2453	313	59
5	2459	314	60
5	2470	315	59
5	2472	315	58
5	2478	316	59
5	2480	316	60
5	2481	316	59
5	2489	317	60
5	2490	317	59
5	2492	317	58
5	2498	318	59
5	2500	318	60
5	2504	319	59
5	2509	320	60
5	2515	321	59
5	2524	322	60
5	2538	322	59
5	2543	323	60
5	2579	327	59
5	2582	328	60
5	2583	328	59
5	2586	329	60
5	2615	333	59
5	2622	334	60
5	2644	335	59
5	2653	336	60
5	2657	336	59
5	2664	337	60
5	2688	342	59
5	2694	343	60
5	2719	345	59
5	2727	346	60
5	2735	347	59
5	2738	348	60
5	2760	352	59
5	2764	353	60
5	2765	353	59
5	2771	354	60
5	2780	355	59
5	2784	356	60
5	2794	358	59
5	2798	359	60
5	2800	359	59
5	2804	360	60
5	2828	362	59
5	2834	363	60
5	2846	364	59
5	2850	364	58
5	2855	365	59
5	2856	365	60
5	2862	366	59
5	2869	367	60
5	2900	372	59
5	2906	373	60
5	2910	373	59
5	2920	374	60
5	2944	377	59
5	2945	378	60
5	2972	383	59
5	2983	384	60
5	3005	387	59
5	3007	388	60
5	3051	395	59
5	3057	396	60
5	3081	399	59
5	3083	400	60
5	3102	402	59
5	3108	403	60
5	3142	405	59
5	3147	406	60
5	3152	407	59
5	3153	408	60
5	3170	412	59
5	3174	412	58
5	3176	413	59
5	3178	413	60
5	3179	413	59
5	3185	414	60
5	3186	414	59
5	3191	415	60
5	3202	417	59
5	3204	418	60
5	3205	418	59
5	3210	419	60
5	3216	420	59
5	3220	421	60
5	3281	426	59
5	3285	427	60
5	3286	427	59
5	3289	428	60
5	3310	432	59
5	3314	432	58
5	3316	433	59
5	3320	433	60
5	3324	433	59
5	3331	434	60
5	3334	434	59
5	3340	434	58
5	3347	435	59
5	3349	435	60
5	3354	436	59
5	3360	437	60
5	3378	442	59
5	3383	443	60
5	3384	443	59
5	3393	444	60
5	3407	446	59
5	3410	447	60
5	3416	448	59
5	3419	449	60
5	3438	452	59
5	3443	453	60
5	3444	453	59
5	3452	454	60
5	3464	456	59
5	3468	457	60
5	3485	460	59
5	3488	461	60
5	3490	461	59
5	3499	462	60
5	3508	462	59
5	3512	462	58
5	3515	463	59
5	3518	463	60
5	3527	464	59
5	3536	464	58
5	3541	465	59
5	3545	465	60
5	3550	466	59
5	3554	466	58
5	3556	467	59
5	3558	467	60
5	3563	468	59
5	3564	469	60
5	3578	472	59
5	3582	472	58
5	3584	473	59
5	3587	473	60
5	3588	473	59
5	3590	473	58
5	3596	474	59
5	3597	474	60
5	3599	474	59
5	3605	474	58
5	3609	475	59
5	3611	475	60
5	3614	475	59
5	3617	475	58
5	3621	476	59
5	3623	476	60
5	3625	476	59
5	3630	477	60
5	3631	477	59
5	3636	478	60
5	3686	485	59
5	3694	486	60
5	3720	489	59
5	3723	490	60
5	3738	492	59
5	3742	492	58
5	3744	493	59
5	3747	493	60
5	3748	493	59
5	3755	494	60
5	3756	494	59
5	3762	494	58
5	3766	495	59
5	3768	495	60
5	3774	496	59
5	3782	497	60
5	3798	499	59
5	3800	500	60
5	3801	500	59
5	3803	501	60
5	3824	502	59
5	3829	503	60
5	3861	507	59
5	3863	508	60
5	3897	514	59
5	3904	515	60
5	3905	515	59
5	3908	516	60
5	3913	517	59
5	3915	518	60
5	3944	522	59
5	3948	522	58
5	3950	523	59
5	3954	523	60
5	3959	523	59
5	3965	524	60
5	3968	524	59
5	3981	525	60
5	4010	532	59
5	4015	533	60
5	4050	536	59
5	4054	537	60
5	4070	542	59
5	4074	542	58
5	4076	543	59
5	4080	543	60
5	4084	543	59
5	4090	544	60
5	4093	544	59
5	4105	545	60
5	4108	545	59
5	4113	546	60
5	4134	552	59
5	4140	553	60
5	4148	553	59
5	4151	553	58
5	4156	554	59
5	4158	554	60
5	4161	554	59
5	4170	555	60
5	4171	555	59
5	4178	556	60
5	4202	562	59
5	4206	563	60
5	4222	565	59
5	4226	566	60
5	4234	568	59
5	4238	569	60
5	4243	570	59
5	4245	571	60
5	4262	572	59
5	4266	572	58
5	4268	573	59
5	4270	573	60
5	4271	573	59
5	4277	574	60
5	4278	574	59
5	4284	574	58
5	4288	575	59
5	4291	575	60
5	4292	575	59
5	4297	576	60
5	4299	576	59
5	4300	576	58
5	4304	577	59
5	4305	577	60
5	4310	578	59
5	4312	578	58
5	4315	579	59
5	4316	579	60
5	4320	580	59
5	4323	581	60
5	4342	582	59
5	4346	582	58
5	4349	583	59
5	4352	583	60
5	4357	583	59
5	4362	584	60
5	4365	584	59
5	4367	584	58
5	4370	584	57
5	4376	585	58
5	4377	585	59
5	4378	585	60
5	4380	585	59
5	4387	586	60
5	4388	586	59
5	4389	586	60
5	4395	587	59
5	4402	588	60
5	4464	597	59
5	4468	598	60
5	4492	602	59
5	4496	603	60
5	4497	603	59
5	4504	604	60
5	4511	605	59
5	4516	606	60
5	4522	607	59
5	4524	608	60
5	4535	610	59
5	4538	611	60
5	4558	612	59
5	4562	612	58
5	4565	613	59
5	4567	613	60
5	4568	613	59
5	4576	614	60
5	4577	614	59
5	4581	614	58
5	4584	614	57
5	4589	615	58
5	4591	615	59
5	4593	615	60
5	4599	616	59
5	4600	616	60
5	4607	616	59
5	4610	617	60
5	4613	617	59
5	4614	617	58
5	4620	618	59
5	4621	618	60
5	4626	619	59
5	4627	619	58
5	4629	620	59
5	4630	620	60
5	4634	621	59
5	4645	622	60
5	4660	622	59
5	4665	623	60
5	4667	623	59
5	4676	624	60
5	4704	629	59
5	4708	630	60
5	4730	632	59
5	4735	633	60
5	4776	636	59
5	4779	637	60
5	4800	642	59
5	4805	643	60
5	4831	646	59
5	4833	647	60
5	4839	648	59
5	4842	649	60
5	4862	652	59
5	4868	653	60
5	4887	654	59
5	4895	655	60
5	4910	657	59
5	4914	658	60
5	4951	664	59
5	4961	665	60
5	4998	672	59
5	5002	673	60
5	5003	673	59
5	5012	674	60
5	5023	675	59
5	5027	676	60
5	5035	678	59
5	5038	679	60
5	5060	682	59
5	5064	683	60
5	5065	683	59
5	5073	684	60
5	5091	687	59
5	5093	688	60
5	5099	689	59
5	5102	690	60
5	5126	692	59
5	5131	693	60
5	5135	693	59
5	5142	694	60
5	5151	694	59
5	5155	695	60
5	5182	702	59
5	5185	703	60
5	5193	704	59
5	5198	705	60
5	5211	708	59
5	5214	709	60
5	5218	709	59
5	5220	710	60
5	5246	712	59
5	5250	713	60
5	5251	713	59
5	5254	713	58
5	5259	714	59
5	5260	714	60
5	5266	715	59
5	5272	715	58
5	5275	716	59
5	5276	716	60
5	5277	716	59
5	5281	717	60
5	5282	717	59
5	5283	717	58
5	5286	718	59
5	5287	718	60
5	5294	719	59
5	5299	720	60
5	5320	722	59
5	5324	722	58
5	5326	723	59
5	5330	723	60
5	5341	724	59
5	5355	725	60
5	5365	726	59
5	5369	727	60
5	5372	727	59
5	5373	728	60
5	5390	732	59
5	5394	732	58
5	5396	733	59
5	5398	733	60
5	5404	734	59
5	5410	734	58
5	5413	735	59
5	5419	736	60
5	5430	737	59
5	5435	738	60
5	5448	740	59
5	5449	741	60
5	5464	742	59
5	5468	742	58
5	5470	743	59
5	5478	744	60
5	5480	744	59
5	5486	745	60
5	5520	752	59
5	5525	753	60
5	5540	754	59
5	5546	755	60
5	5560	757	59
5	5564	758	60
5	5569	759	59
5	5571	760	60
5	5588	762	59
5	5592	762	58
5	5594	763	59
5	5597	763	58
5	5604	764	59
5	5606	764	58
5	5611	765	59
5	5616	766	60
5	5634	769	59
5	5635	770	60
5	5656	772	59
5	5660	773	60
5	5708	778	59
5	5709	779	60
5	5734	783	59
5	5746	784	60
5	5767	787	59
5	5769	788	60
5	5824	799	59
5	5825	800	60
5	5840	802	59
5	5844	802	58
5	5846	803	59
5	5854	803	58
5	5860	804	59
5	5870	805	60
5	5873	805	59
5	5875	806	60
5	5908	814	59
5	5916	815	60
5	5929	817	59
5	5931	818	60
5	5960	822	59
5	5966	823	60
5	5997	827	59
5	5999	828	60
5	6000	828	59
5	6003	829	60
5	6028	832	59
5	6032	833	60
5	6045	834	59
5	6055	835	60
5	6086	842	59
5	6090	842	58
5	6092	843	59
5	6102	844	60
5	6111	844	59
5	6118	845	60
5	6131	847	59
5	6134	848	60
5	6138	849	59
5	6139	850	60
5	6160	852	59
5	6164	853	60
5	6165	853	59
5	6173	854	60
5	6200	857	59
5	6204	858	60
5	6224	862	59
5	6227	863	60
5	6253	866	59
5	6257	867	60
5	6258	867	59
5	6262	868	60
5	6284	872	59
5	6288	872	58
5	6290	873	59
5	6297	873	58
5	6303	874	59
5	6311	874	58
5	6315	875	59
5	6319	876	60
5	6340	882	59
5	6346	883	60
5	6350	883	59
5	6359	884	60
5	6370	885	59
5	6374	886	60
5	6419	894	59
5	6426	895	60
5	6434	896	59
5	6436	897	60
5	6493	906	59
5	6495	907	60
5	6512	912	59
5	6516	912	58
5	6518	913	59
5	6526	914	60
5	6535	915	59
5	6540	916	60
5	6545	917	59
5	6547	918	60
5	6548	918	59
5	6552	919	60
5	6580	922	59
5	6585	923	60
5	6586	923	59
5	6589	923	58
5	6595	924	59
5	6601	925	60
5	6608	925	59
5	6611	926	60
5	6612	926	59
5	6616	927	60
5	6640	932	59
5	6644	932	58
5	6646	933	59
5	6649	933	58
5	6655	934	59
5	6660	934	58
5	6664	935	59
5	6671	936	60
5	6678	936	59
5	6685	937	60
5	6694	938	59
5	6696	939	60
5	6702	940	59
5	6705	941	60
5	6724	942	59
5	6729	943	60
5	6730	943	59
5	6738	944	60
5	6765	946	59
5	6769	947	60
5	6790	952	59
5	6794	953	60
5	6795	953	59
5	6800	954	60
5	6803	954	59
5	6812	955	60
5	6822	956	59
5	6828	957	60
5	6854	962	59
5	6858	962	58
5	6860	963	59
5	6863	963	58
5	6866	963	57
5	6871	964	58
5	6873	964	57
5	6878	965	58
5	6883	966	59
5	6886	966	58
5	6888	967	59
5	6891	968	60
5	6928	973	59
5	6935	974	60
5	6948	975	59
5	6950	976	60
5	6978	982	59
5	6982	983	60
5	7027	989	59
5	7030	990	60
5	7031	990	59
5	7033	991	60
5	7050	992	59
5	7054	992	58
5	7056	993	59
5	7060	993	58
5	7062	993	57
5	7067	994	58
5	7073	994	57
5	7078	995	58
5	7086	996	59
5	7093	997	60
5	7121	1003	59
5	7123	1003	58
5	7129	1004	59
5	7140	1005	60
5	7176	1012	59
5	7180	1013	60
5	7200	1016	59
5	7205	1017	60
5	7212	1018	59
5	7215	1019	60
5	7242	1023	59
5	7250	1024	60
5	7270	1025	59
5	7276	1026	60
5	7279	1026	59
5	7284	1027	60
5	7312	1032	59
5	7315	1033	60
5	7325	1034	59
5	7333	1035	60
5	7376	1043	59
5	7383	1044	60
5	7394	1045	59
5	7399	1046	60
5	7407	1048	59
5	7410	1049	60
5	7432	1052	59
5	7436	1053	60
5	7447	1054	59
5	7456	1055	60
5	7470	1058	59
5	7471	1059	60
5	7492	1062	59
5	7496	1063	60
5	7521	1066	59
5	7523	1067	60
5	7524	1067	59
5	7527	1068	60
5	7552	1072	59
5	7556	1073	60
5	7557	1073	59
5	7565	1074	60
5	7569	1074	59
5	7577	1075	60
5	7582	1075	59
5	7583	1075	58
5	7586	1076	59
5	7591	1077	60
5	7616	1082	59
5	7622	1083	60
5	7625	1083	59
5	7631	1084	60
5	7644	1085	59
5	7648	1086	60
5	7655	1087	59
5	7659	1088	60
5	7660	1088	59
5	7664	1089	60
5	7692	1092	59
5	7696	1093	60
5	7697	1093	59
5	7705	1094	60
5	7721	1096	59
5	7726	1097	60
5	7736	1098	59
5	7737	1099	60
5	7752	1102	59
5	7756	1102	58
5	7758	1103	59
5	7760	1103	58
5	7766	1104	59
5	7772	1105	60
5	7801	1110	59
5	7804	1111	60
5	7805	1111	59
5	7813	1112	60
5	7826	1112	59
5	7831	1113	60
5	7837	1113	59
5	7843	1114	60
5	7858	1116	59
5	7862	1117	60
5	7884	1122	59
5	7890	1123	60
5	7893	1123	59
5	7899	1124	60
5	7913	1125	59
5	7918	1126	60
5	7925	1127	59
5	7927	1128	60
5	7928	1128	59
5	7932	1129	60
5	7956	1132	59
5	7960	1132	58
5	7962	1133	59
5	7964	1133	58
5	7969	1134	59
5	7972	1134	58
5	7976	1134	57
5	7980	1135	58
5	7986	1136	59
5	7993	1137	60
5	8024	1143	59
5	8031	1144	60
5	8071	1149	59
5	8073	1150	60
5	8092	1152	59
5	8097	1153	60
5	8101	1153	59
5	8110	1154	60
5	8113	1154	59
5	8121	1155	60
5	8150	1162	59
5	8154	1163	60
5	8155	1163	59
5	8163	1164	60
5	8177	1165	59
5	8183	1166	60
5	8200	1168	59
5	8203	1169	60
5	8205	1169	59
5	8207	1170	60
5	8228	1172	59
5	8232	1173	60
5	8242	1174	59
5	8248	1175	60
5	8266	1179	59
5	8267	1180	60
5	8303	1185	59
5	8310	1186	60
5	8330	1189	59
5	8334	1190	60
5	8352	1192	59
5	8356	1192	58
5	8358	1193	59
5	8367	1194	60
5	8377	1194	59
5	8384	1195	60
5	8385	1195	59
5	8390	1196	60
5	8391	1196	59
5	8394	1197	60
5	8416	1202	59
5	8420	1203	60
5	8432	1204	59
5	8438	1205	60
5	8464	1210	59
5	8465	1211	60
5	8480	1212	59
5	8486	1213	60
5	8489	1213	59
5	8495	1214	60
5	8499	1214	59
5	8502	1214	58
5	8509	1215	59
5	8515	1215	58
5	8519	1216	59
5	8525	1217	60
5	8550	1222	59
5	8556	1223	60
5	8560	1223	59
5	8569	1224	60
5	8581	1225	59
5	8585	1226	60
5	8616	1233	59
5	8623	1234	60
5	8624	1234	59
5	8631	1235	60
5	8672	1242	59
5	8676	1243	60
5	8686	1244	59
5	8692	1245	60
5	8701	1247	59
5	8703	1248	60
5	8732	1252	59
5	8736	1253	60
5	8762	1256	59
5	8768	1257	60
5	8776	1258	59
5	8780	1259	60
5	8804	1262	59
5	8808	1263	60
5	8809	1263	59
5	8815	1264	60
5	8829	1265	59
5	8835	1266	60
5	8836	1266	59
5	8844	1267	60
5	8863	1270	59
5	8865	1271	60
5	8892	1273	59
5	8897	1274	60
5	8899	1274	59
5	8906	1275	60
5	8948	1282	59
5	8953	1283	60
5	8990	1288	59
5	8991	1289	60
5	9017	1293	59
5	9021	1294	60
5	9088	1305	59
5	9096	1306	60
5	9097	1306	59
5	9103	1307	60
5	9105	1307	59
5	9110	1308	60
5	9136	1312	59
5	9140	1312	58
5	9142	1313	59
5	9149	1314	60
5	9158	1314	59
5	9164	1315	60
5	9165	1315	59
5	9171	1316	60
5	9177	1317	59
5	9180	1318	60
5	9200	1322	59
5	9206	1323	60
5	9213	1323	59
5	9221	1324	60
5	9252	1332	59
5	9256	1332	58
5	9258	1333	59
5	9260	1333	58
5	9266	1334	59
5	9272	1335	60
5	9274	1335	59
5	9278	1336	60
5	9284	1336	59
5	9289	1337	60
5	9291	1337	59
5	9296	1338	60
5	9307	1340	59
5	9309	1341	60
5	9328	1342	59
5	9332	1343	60
5	9357	1346	59
5	9362	1347	60
5	9363	1347	59
5	9368	1348	60
5	9390	1352	59
5	9394	1352	58
5	9396	1353	59
5	9405	1354	60
5	9411	1354	59
5	9417	1355	60
5	9423	1356	59
5	9425	1357	60
5	9426	1357	59
5	9430	1358	60
5	9466	1363	59
5	9471	1364	60
5	9506	1372	59
5	9510	1372	58
5	9512	1373	59
5	9525	1374	60
5	9537	1375	59
5	9540	1376	60
5	9541	1376	59
5	9547	1377	60
5	9557	1378	59
5	9559	1379	60
5	9614	1387	59
5	9616	1388	60
5	9632	1392	59
5	9638	1393	60
5	9653	1394	59
5	9661	1395	60
5	9715	1407	59
5	9719	1408	60
5	9720	1408	59
5	9724	1409	60
5	9752	1412	59
5	9757	1413	60
5	9787	1418	59
5	9792	1419	60
5	9797	1420	59
5	9799	1421	60
5	9816	1422	59
5	9820	1422	58
5	9822	1423	59
5	9829	1424	60
5	9837	1424	59
5	9842	1425	60
5	9859	1428	59
5	9862	1429	60
5	9869	1431	59
5	9877	1432	60
5	9890	1432	59
5	9895	1433	60
5	9897	1433	59
5	9903	1434	60
5	9944	1439	59
5	9945	1440	60
5	9964	1442	59
5	9968	1443	60
5	9978	1444	59
5	9988	1445	60
5	10006	1448	59
5	10007	1449	60
5	10024	1452	59
5	10030	1453	60
5	10055	1456	59
5	10059	1457	60
5	10065	1458	59
5	10068	1459	60
5	10092	1462	59
5	10096	1463	60
5	10097	1463	59
5	10103	1464	60
5	10119	1465	59
5	10120	1465	58
5	10127	1466	59
5	10133	1466	58
5	10135	1467	59
5	10139	1468	60
5	10166	1472	59
5	10170	1473	60
5	10171	1473	59
5	10173	1473	58
5	10178	1474	59
5	10187	1475	60
5	10195	1476	59
5	10199	1477	60
5	10214	1480	59
5	10216	1481	60
5	10236	1482	59
5	10243	1483	60
5	10249	1483	59
5	10255	1484	60
5	10261	1484	59
5	10269	1485	60
5	10304	1492	59
5	10307	1493	60
5	10308	1493	59
5	10314	1494	60
5	10315	1494	59
5	10320	1495	60
5	10327	1495	59
5	10333	1496	60
5	10355	1500	59
5	10357	1501	60
5	10378	1502	59
5	10382	1503	60
5	10383	1503	59
5	10390	1504	60
5	10414	1507	59
5	10419	1508	60
5	10424	1509	59
5	10425	1510	60
5	10442	1512	59
5	10446	1512	58
5	10448	1513	59
5	10455	1514	60
5	10493	1519	59
5	10496	1520	60
5	10497	1520	59
5	10499	1521	60
5	10516	1522	59
5	10520	1522	58
5	10522	1523	59
5	10525	1523	58
5	10532	1524	59
5	10538	1524	58
5	10542	1525	59
5	10550	1526	60
5	10559	1527	59
5	10562	1528	60
5	10566	1529	59
5	10567	1530	60
5	10588	1532	59
5	10591	1533	60
5	10592	1533	59
5	10598	1534	60
5	10599	1534	59
5	10606	1535	60
5	10626	1539	59
5	10627	1540	60
5	10648	1542	59
5	10651	1543	60
5	10652	1543	59
5	10658	1544	60
5	10677	1546	59
5	10681	1547	60
5	10687	1548	59
5	10690	1549	60
5	10712	1552	59
5	10718	1553	60
5	10722	1553	59
5	10731	1554	60
5	10736	1554	59
5	10739	1554	58
5	10745	1555	59
5	10747	1555	58
5	10750	1556	59
5	10753	1557	60
5	10774	1562	59
5	10780	1563	60
5	10791	1564	59
5	10795	1564	58
5	10801	1565	59
5	10810	1566	60
5	10849	1573	59
5	10852	1573	58
5	10857	1574	59
5	10863	1575	60
5	10874	1576	59
5	10877	1577	60
5	10912	1582	59
5	10917	1583	60
5	10948	1587	59
5	10952	1588	60
5	10957	1589	59
5	10959	1590	60
5	10988	1593	59
5	10995	1594	60
5	10997	1594	59
5	11005	1595	60
5	11036	1602	59
5	11040	1603	60
5	11071	1608	59
5	11074	1609	60
5	11092	1612	59
5	11098	1613	60
5	11104	1613	59
5	11111	1614	60
5	11113	1614	59
5	11116	1614	58
5	11122	1615	59
5	11131	1616	60
5	11172	1623	59
5	11180	1624	60
5	11194	1625	59
5	11196	1626	60
5	11220	1632	59
5	11226	1633	60
5	11231	1633	59
5	11233	1633	58
5	11241	1634	59
5	11247	1634	58
5	11252	1635	59
5	11256	1635	58
5	11258	1636	59
5	11261	1637	60
5	11282	1642	59
5	11286	1642	58
5	11288	1643	59
5	11296	1643	58
5	11302	1644	59
5	11311	1645	60
5	11326	1648	59
5	11327	1649	60
5	11344	1652	59
5	11348	1652	58
5	11350	1653	59
5	11358	1653	58
5	11363	1654	59
5	11371	1655	60
5	11386	1658	59
5	11387	1659	60
5	11412	1663	59
5	11418	1664	60
5	11431	1665	59
5	11435	1665	58
5	11440	1666	59
5	11448	1667	60
5	11449	1667	59
5	11452	1668	60
5	11512	1678	59
5	11514	1679	60
5	11534	1682	59
5	11539	1683	60
5	11564	1687	59
5	11568	1688	60
5	11576	1689	59
5	11579	1690	60
5	11614	1694	59
5	11618	1695	60
5	11626	1696	59
5	11629	1697	60
5	11643	1699	59
5	11645	1700	60
5	11666	1702	59
5	11670	1703	60
5	11674	1703	59
5	11681	1704	60
5	11683	1704	59
5	11690	1705	60
5	11726	1712	59
5	11731	1713	60
5	11734	1713	59
5	11742	1714	60
5	11770	1718	59
5	11773	1719	60
5	11794	1722	59
5	11797	1723	60
5	11798	1723	59
5	11803	1724	60
5	11817	1725	59
5	11822	1726	60
5	11823	1726	59
5	11829	1727	60
5	11830	1727	59
5	11833	1728	60
5	11835	1728	59
5	11840	1729	60
5	11864	1732	59
5	11871	1733	60
5	11874	1733	59
5	11879	1734	60
5	11886	1734	59
5	11895	1735	60
5	11900	1735	59
5	11908	1736	60
5	11912	1736	59
5	11917	1737	60
5	11952	1743	59
5	11954	1743	58
5	11962	1744	59
5	11972	1745	60
5	11981	1745	59
5	11987	1746	60
[...]
9	8224	1172	59
9	8230	1173	60
9	8233	1173	59
9	8240	1174	60
9	8249	1175	59
9	8253	1176	60
9	8284	1182	59
9	8288	1182	58
9	8290	1183	59
9	8292	1183	58
9	8297	1184	59
9	8298	1184	58
9	8301	1185	59
9	8306	1185	58
9	8309	1186	59
9	8317	1187	60
9	8335	1190	59
9	8337	1191	60
9	8364	1193	59
9	8371	1194	60
9	8374	1194	59
9	8383	1195	60
9	8447	1206	59
9	8450	1207	60
9	8484	1212	59
9	8488	1213	60
9	8505	1214	59
9	8511	1215	60
9	8512	1215	59
9	8520	1216	60
9	8548	1222	59
9	8554	1223	60
9	8557	1223	59
9	8563	1223	58
9	8567	1224	59
9	8571	1224	58
9	8577	1225	59
9	8583	1226	60
9	8608	1232	59
9	8610	1232	58
9	8612	1232	57
9	8614	1233	58
9	8619	1233	57
9	8622	1234	58
9	8630	1235	59
9	8636	1235	58
9	8639	1236	59
9	8643	1236	58
9	8645	1237	59
9	8649	1238	60
9	8668	1242	59
9	8674	1243	60
9	8677	1243	59
9	8684	1244	60
9	8693	1245	59
9	8697	1246	60
9	8730	1252	59
9	8735	1253	60
9	8737	1253	59
9	8742	1254	60
9	8750	1254	59
9	8754	1255	60
9	8784	1260	59
9	8785	1261	60
9	8802	1262	59
9	8807	1263	60
9	8859	1269	59
9	8862	1270	60
9	8882	1272	59
9	8884	1272	58
9	8888	1273	59
9	8889	1273	58
9	8896	1274	59
9	8902	1274	58
9	8905	1275	59
9	8913	1275	58
9	8915	1276	59
9	8919	1277	60
9	8924	1277	59
9	8928	1278	60
9	8946	1282	59
9	8952	1283	60
9	8966	1284	59
9	8969	1284	58
9	8975	1285	59
9	8980	1286	60
9	9006	1292	59
9	9008	1292	58
9	9010	1292	57
9	9012	1293	58
9	9014	1293	57
9	9020	1294	58
9	9022	1294	57
9	9027	1295	58
9	9032	1295	57
9	9034	1296	58
9	9039	1297	59
9	9043	1298	60
9	9066	1302	59
9	9069	1303	60
9	9078	1304	59
9	9082	1304	58
9	9087	1305	59
9	9095	1306	60
9	9114	1309	59
9	9116	1310	60
9	9138	1312	59
9	9143	1313	60
9	9144	1313	59
9	9150	1314	60
9	9184	1319	59
9	9185	1320	60
9	9204	1322	59
9	9209	1323	60
9	9210	1323	59
9	9220	1324	60
9	9224	1324	59
9	9232	1325	60
9	9297	1338	59
9	9300	1339	60
9	9326	1342	59
9	9331	1343	60
9	9374	1349	59
9	9375	1350	60
9	9403	1353	59
9	9408	1354	60
9	9431	1358	59
9	9434	1359	60
9	9454	1362	59
9	9456	1362	58
9	9458	1362	57
9	9460	1363	58
9	9468	1364	59
9	9473	1364	58
9	9477	1365	59
9	9483	1365	58
9	9485	1366	59
9	9489	1367	60
9	9522	1373	59
9	9528	1374	60
9	9580	1382	59
9	9584	1383	60
9	9597	1384	59
9	9604	1385	60
9	9634	1392	59
9	9636	1392	58
9	9639	1393	59
9	9647	1393	58
9	9650	1394	59
9	9660	1395	60
9	9684	1402	59
9	9687	1403	60
9	9698	1404	59
9	9702	1405	60
9	9725	1409	59
9	9728	1410	60
9	9748	1412	59
9	9754	1413	60
9	9762	1413	59
9	9767	1414	60
9	9793	1419	59
9	9796	1420	60
9	9818	1422	59
9	9823	1423	60
9	9824	1423	59
9	9830	1424	60
9	9833	1424	59
9	9841	1425	60
9	9866	1430	59
9	9868	1431	60
9	9888	1432	59
9	9894	1433	60
9	9912	1434	59
9	9918	1435	60
9	9919	1435	59
9	9926	1436	60
9	9969	1443	59
9	9971	1443	58
9	9976	1444	59
9	9987	1445	60
9	10028	1452	59
9	10033	1453	60
9	10034	1453	59
9	10038	1453	58
9	10043	1454	59
9	10045	1454	58
9	10050	1455	59
9	10054	1456	60
9	10090	1462	59
9	10095	1463	60
9	10111	1464	59
9	10118	1465	60
9	10142	1468	59
9	10144	1469	60
9	10207	1478	59
9	10210	1479	60
9	10238	1482	59
9	10240	1482	58
9	10245	1483	59
9	10247	1483	58
9	10253	1484	59
9	10257	1484	58
9	10264	1484	57
9	10266	1485	58
9	10274	1486	59
9	10279	1487	60
9	10300	1492	59
9	10302	1492	58
9	10306	1493	59
9	10313	1494	60
9	10325	1495	59
9	10332	1496	60
9	10346	1498	59
9	10350	1499	60
9	10385	1503	59
9	10392	1504	60
9	10444	1512	59
9	10449	1513	60
9	10450	1513	59
9	10456	1514	60
9	10462	1514	59
9	10466	1515	60
9	10467	1515	59
9	10472	1516	60
9	10529	1523	59
9	10535	1524	60
9	10536	1524	59
9	10543	1525	60
9	10608	1535	59
9	10613	1536	60
9	10670	1545	59
9	10676	1546	60
9	10716	1552	59
9	10721	1553	60
9	10726	1553	59
9	10734	1554	60
9	10776	1562	59
9	10778	1562	58
9	10781	1563	59
9	10787	1564	60
9	10797	1564	59
9	10803	1565	60
9	10806	1565	59
9	10812	1566	60
9	10824	1568	59
9	10825	1569	60
9	10840	1572	59
9	10844	1572	58
9	10846	1573	59
9	10856	1574	60
9	10870	1575	59
9	10873	1576	60
9	10885	1578	59
9	10888	1579	60
9	10910	1582	59
9	10916	1583	60
9	10922	1583	59
9	10927	1584	60
9	10933	1584	59
9	10937	1585	60
9	10953	1588	59
9	10956	1589	60
9	10980	1592	59
9	10984	1593	60
9	10985	1593	59
9	10994	1594	60
9	11015	1597	59
9	11017	1598	60
9	11032	1602	59
9	11038	1603	60
9	11041	1603	59
9	11049	1604	60
9	11052	1604	59
9	11058	1605	60
9	11075	1609	59
9	11077	1610	60
9	11094	1612	59
9	11096	1612	58
9	11100	1613	59
9	11108	1614	60
9	11119	1614	59
9	11124	1615	60
9	11127	1615	59
9	11133	1616	60
9	11136	1616	59
9	11140	1617	60
9	11162	1622	59
9	11167	1623	60
9	11174	1623	59
9	11181	1624	60
9	11187	1624	59
9	11192	1625	60
9	11224	1632	59
9	11230	1633	60
9	11237	1633	59
9	11244	1634	60
9	11299	1643	59
9	11305	1644	60
9	11361	1653	59
9	11366	1654	60
9	11406	1662	59
9	11408	1662	58
9	11411	1663	59
9	11417	1664	60
9	11424	1664	59
9	11430	1665	60
9	11453	1668	59
9	11456	1669	60
9	11474	1672	59
9	11476	1672	58
9	11478	1672	57
9	11480	1673	58
9	11486	1673	57
9	11489	1674	58
9	11491	1674	57
9	11496	1675	58
9	11501	1676	59
9	11504	1676	58
9	11506	1677	59
9	11509	1678	60
9	11530	1682	59
9	11536	1683	60
9	11540	1683	59
9	11544	1683	58
9	11548	1684	59
9	11553	1685	60
9	11598	1692	59
9	11602	1693	60
9	11630	1697	59
9	11635	1698	60
9	11700	1706	59
9	11703	1707	60
9	11732	1713	59
9	11736	1713	58
9	11740	1714	59
9	11751	1715	60
9	11813	1725	59
9	11821	1726	60
9	11866	1732	59
9	11868	1732	58
9	11872	1733	59
9	11878	1734	60
9	11882	1734	59
9	11888	1734	58
9	11892	1735	59
9	11904	1736	60
9	11922	1738	59
9	11924	1739	60
9	11944	1742	59
9	11946	1742	58
9	11950	1743	59
9	11958	1743	58
9	11961	1744	59
9	11971	1745	60
9	11979	1745	59
9	11986	1746	60
9	12014	1752	59
9	12020	1753	60
9	12025	1753	59
9	12031	1753	58
9	12036	1754	59
9	12045	1755	60
9	12124	1770	59
9	12125	1771	60
9	12144	1772	59
9	12148	1773	60
9	12152	1773	59
9	12158	1774	60
9	12160	1774	59
9	12165	1774	58
9	12168	1775	59
9	12173	1776	60
9	12220	1783	59
9	12226	1784	60
9	12264	1792	59
9	12268	1792	58
9	12270	1793	59
9	12277	1793	58
9	12279	1794	59
9	12286	1795	60
9	12306	1798	59
9	12309	1799	60
10	0	0	0
11	0	0	0
11	159	2	59
11	165	3	60
11	177	3	59
11	186	4	60
11	225	12	59
11	231	13	60
11	240	13	59
11	248	14	60
11	270	15	59
11	279	16	60
11	316	23	59
11	321	23	58
11	326	24	59
11	330	24	60
11	342	25	59
11	354	26	60
11	405	33	59
11	414	34	60
11	475	42	59
11	481	43	60
11	522	45	59
11	533	46	60
11	578	53	59
11	588	54	60
11	617	55	59
11	628	56	60
11	673	63	59
11	682	64	60
11	738	73	59
11	741	73	58
11	748	74	59
11	750	74	60
11	760	75	59
11	768	76	60
11	807	83	59
11	814	83	58
11	818	84	59
11	822	84	60
11	831	85	59
11	834	86	60
11	864	93	59
11	872	94	60
11	923	97	59
11	928	98	60
11	947	102	59
11	953	103	60
11	987	105	59
11	990	106	60
11	1007	112	59
11	1009	112	58
11	1013	113	59
11	1015	113	60
11	1018	113	59
11	1021	113	58
11	1025	114	59
11	1028	114	60
11	1030	114	59
11	1036	114	58
11	1042	115	59
11	1044	115	60
11	1047	115	59
11	1054	115	58
11	1055	116	59
11	1058	116	60
11	1063	116	59
11	1068	117	60
11	1071	117	59
11	1076	118	60
11	1110	123	59
11	1120	124	60
11	1175	132	59
11	1181	133	60
11	1190	133	59
11	1199	134	60
11	1201	134	59
11	1211	135	60
11	1251	142	59
11	1257	143	60
11	1294	145	59
11	1302	146	60
11	1327	152	59
11	1333	153	60
11	1337	153	59
11	1339	153	58
11	1346	154	59
11	1348	154	60
11	1363	155	59
11	1369	155	58
11	1375	156	59
11	1378	156	60
11	1386	157	59
11	1389	158	60
11	1405	162	59
11	1411	163	60
11	1441	165	59
11	1443	166	60
11	1459	172	59
11	1465	173	60
11	1471	173	59
11	1477	173	58
11	1482	174	59
11	1486	174	60
11	1495	175	59
11	1502	176	60
11	1523	182	59
11	1525	182	58
11	1529	183	59
11	1531	183	60
11	1535	183	59
11	1542	183	58
11	1544	184	59
11	1546	184	60
11	1550	184	59
11	1558	185	60
11	1559	185	59
11	1562	186	60
11	1629	195	59
11	1639	196	60
11	1677	203	59
11	1679	203	58
11	1686	204	59
11	1688	204	60
11	1702	205	59
11	1712	205	58
11	1714	206	59
11	1720	206	60
11	1726	207	59
11	1731	208	60
11	1749	212	59
11	1755	213	60
11	1788	215	59
11	1792	216	60
11	1860	230	59
11	1861	231	60
11	1888	233	59
11	1889	233	58
11	1895	234	59
11	1896	234	60
11	1898	234	59
11	1904	235	60
11	1906	235	59
11	1917	236	60
11	1951	242	59
11	1957	243	60
11	1967	243	59
11	1973	244	60
11	2077	262	59
11	2085	263	60
11	2094	263	59
11	2100	264	60
11	2119	265	59
11	2122	266	60
11	2189	275	59
11	2195	276	60
11	2274	287	59
11	2277	288	60
11	2308	293	59
11	2311	293	58
11	2316	294	59
11	2318	294	60
11	2328	295	59
11	2336	296	60
11	2379	303	59
11	2386	304	60
11	2405	305	59
11	2411	306	60
11	2462	314	59
11	2468	315	60
11	2502	318	59
11	2505	319	60
11	2549	323	59
11	2555	324	60
11	2584	328	59
11	2587	329	60
11	2627	334	59
11	2638	335	60
11	2647	335	59
11	2654	336	60
11	2722	345	59
11	2728	346	60
11	2773	354	59
11	2776	355	60
11	2801	359	59
11	2805	360	60
11	2838	363	59
11	2840	363	58
11	2844	364	59
11	2845	364	60
11	2854	365	59
11	2861	366	60
11	2897	372	59
11	2899	372	58
11	2903	373	59
11	2905	373	60
11	2917	374	59
11	2931	375	60
11	2946	378	59
11	2947	379	60
11	2965	382	59
11	2970	383	60
11	2979	383	59
11	2986	384	60
11	3035	393	59
11	3041	394	60
11	3154	408	59
11	3155	409	60
11	3212	419	59
11	3215	420	60
11	3275	425	59
11	3280	426	60
11	3313	432	59
11	3319	433	60
11	3323	433	59
11	3326	433	58
11	3329	433	57
11	3333	434	58
11	3335	434	59
11	3337	434	60
11	3346	435	59
11	3348	435	60
11	3353	436	59
11	3359	437	60
11	3377	442	59
11	3382	443	60
11	3412	447	59
11	3415	448	60
11	3506	462	59
11	3513	463	60
11	3522	463	59
11	3525	463	58
11	3530	464	59
11	3532	464	60
11	3543	465	59
11	3552	466	60
11	3579	472	59
11	3585	473	60
11	3589	473	59
11	3593	473	58
11	3598	474	59
11	3600	474	60
11	3603	474	59
11	3610	475	60
11	3613	475	59
11	3622	476	60
11	3663	483	59
11	3664	483	58
11	3670	484	59
11	3671	484	60
11	3682	485	59
11	3692	486	60
11	3749	493	59
11	3757	494	60
11	3802	500	59
11	3804	501	60
11	3837	503	59
11	3843	504	60
11	3891	513	59
11	3896	514	60
11	3945	522	59
11	3951	523	60
11	3961	523	59
11	3963	523	58
11	3969	524	59
11	3971	524	60
11	3982	525	59
11	3988	526	60
11	4009	532	59
11	4014	533	60
11	4019	533	59
11	4022	533	58
11	4027	534	59
11	4029	534	60
11	4038	535	59
11	4046	536	60
11	4071	542	59
11	4077	543	60
11	4086	543	59
11	4094	544	60
11	4116	546	59
11	4118	547	60
11	4135	552	59
11	4141	553	60
11	4147	553	59
11	4152	553	58
11	4155	554	59
11	4159	554	60
11	4169	555	59
11	4177	556	60
11	4246	571	59
11	4253	572	60
11	4272	573	59
11	4274	573	58
11	4279	574	59
11	4280	574	60
11	4289	575	59
11	4298	576	60
11	4343	582	59
11	4350	583	60
11	4356	583	59
11	4359	583	58
11	4364	584	59
11	4366	584	60
11	4375	585	59
11	4386	586	60
11	4392	586	59
11	4397	587	60
11	4429	593	59
11	4436	594	60
11	4570	613	59
11	4572	613	58
11	4579	614	59
11	4580	614	60
11	4582	614	59
11	4590	615	60
11	4592	615	59
11	4596	615	58
11	4601	616	59
11	4603	616	60
11	4611	617	59
11	4619	618	60
11	4671	623	59
11	4677	624	60
11	4729	632	59
11	4734	633	60
11	4742	633	59
11	4750	634	60
11	4799	642	59
11	4804	643	60
11	4812	643	59
11	4817	644	60
11	4873	653	59
11	4877	653	58
11	4881	654	59
11	4883	654	60
11	4893	655	59
11	4902	656	60
11	4942	663	59
11	4943	663	58
11	4949	664	59
11	4950	664	60
11	4960	665	59
11	4968	666	60
11	5008	673	59
11	5014	674	60
11	5069	683	59
11	5074	684	60
11	5123	692	59
11	5129	693	60
11	5158	695	59
11	5160	696	60
11	5222	710	59
11	5224	711	60
11	5243	712	59
11	5249	713	60
11	5263	714	59
11	5268	715	60
11	5284	717	59
11	5288	718	60
11	5336	723	59
11	5345	724	60
11	5374	728	59
11	5375	729	60
11	5400	733	59
11	5406	734	60
11	5439	738	59
11	5443	739	60
11	5482	744	59
11	5487	745	60
11	5531	753	59
11	5537	754	60
11	5572	760	59
11	5573	761	60
11	5591	762	59
11	5596	763	60
11	5636	770	59
11	5637	771	60
11	5665	773	59
11	5666	773	58
11	5671	774	59
11	5672	774	60
11	5680	775	59
11	5688	776	60
11	5727	782	59
11	5732	783	60
11	5741	783	59
11	5749	784	60
11	5787	792	59
11	5791	793	60
11	5799	793	59
11	5804	794	60
11	5841	802	59
11	5847	803	60
11	5876	806	59
11	5877	807	60
11	5920	815	59
11	5923	816	60
11	5989	825	59
11	5992	826	60
11	6027	832	59
11	6031	833	60
11	6037	833	59
11	6044	834	60
11	6089	842	59
11	6094	843	60
11	6096	843	59
11	6104	844	60
11	6140	850	59
11	6141	851	60
11	6169	853	59
11	6176	854	60
11	6231	863	59
11	6236	864	60
11	6287	872	59
11	6293	873	60
11	6296	873	59
11	6305	874	60
11	6308	874	59
11	6316	875	60
11	6337	882	59
11	6343	883	60
11	6376	886	59
11	6378	887	60
11	6411	893	59
11	6418	894	60
11	6457	902	59
11	6463	903	60
11	6473	903	59
11	6479	904	60
11	6529	914	59
11	6534	915	60
11	6577	922	59
11	6583	923	60
11	6598	924	59
11	6603	925	60
11	6618	927	59
11	6621	928	60
11	6643	932	59
11	6648	933	60
11	6650	933	59
11	6656	934	60
11	6668	935	59
11	6673	936	60
11	6698	939	59
11	6701	940	60
11	6732	943	59
11	6735	943	58
11	6740	944	59
11	6742	944	60
11	6752	945	59
11	6760	946	60
11	6797	953	59
11	6802	954	60
11	6830	957	59
11	6833	958	60
11	6855	962	59
11	6861	963	60
11	6874	964	59
11	6879	965	60
11	6881	965	59
11	6884	966	60
11	6915	972	59
11	6921	973	60
11	6949	975	59
11	6951	976	60
11	7032	990	59
11	7034	991	60
11	7051	992	59
11	7057	993	60
11	7061	993	59
11	7064	993	58
11	7068	994	59
11	7069	994	60
11	7071	994	59
11	7079	995	60
11	7080	995	59
11	7087	996	60
11	7113	1002	59
11	7119	1003	60
11	7125	1003	59
11	7131	1004	60
11	7208	1017	59
11	7211	1018	60
11	7244	1023	59
11	7252	1024	60
11	7257	1024	59
11	7267	1025	60
11	7285	1027	59
11	7290	1028	60
11	7319	1033	59
11	7324	1034	60
11	7386	1044	59
11	7393	1045	60
11	7431	1052	59
11	7435	1053	60
11	7472	1059	59
11	7473	1060	60
11	7503	1063	59
11	7508	1064	60
11	7551	1072	59
11	7555	1073	60
11	7561	1073	59
11	7568	1074	60
11	7572	1074	59
11	7579	1075	60
11	7634	1084	59
11	7639	1085	60
11	7650	1086	59
11	7654	1087	60
11	7729	1097	59
11	7732	1098	60
11	7820	1112	59
11	7827	1113	60
11	7844	1114	59
11	7849	1115	60
11	7865	1117	59
11	7868	1118	60
11	7902	1124	59
11	7907	1125	60
11	7915	1125	59
11	7919	1126	60
11	7965	1133	59
11	7970	1134	60
11	7974	1134	59
11	7981	1135	60
11	8033	1144	59
11	8039	1145	60
11	8064	1148	59
11	8068	1149	60
11	8105	1153	59
11	8112	1154	60
11	8165	1164	59
11	8166	1164	58
11	8170	1165	59
11	8171	1165	60
11	8180	1166	59
11	8189	1167	60
11	8206	1169	59
11	8208	1170	60
11	8268	1180	59
11	8269	1181	60
11	8320	1187	59
11	8323	1188	60
11	8363	1193	59
11	8370	1194	60
11	8392	1196	59
11	8395	1197	60
11	8425	1203	59
11	8430	1204	60
11	8490	1213	59
11	8496	1214	60
11	8501	1214	59
11	8510	1215	60
11	8517	1215	59
11	8521	1216	60
11	8547	1222	59
11	8549	1222	58
11	8553	1223	59
11	8555	1223	60
11	8562	1223	59
11	8566	1224	60
11	8570	1224	59
11	8579	1225	60
11	8588	1226	59
11	8591	1227	60
11	8626	1234	59
11	8632	1235	60
11	8651	1238	59
11	8653	1239	60
11	8681	1243	59
11	8685	1244	60
11	8739	1253	59
11	8744	1254	60
11	8772	1257	59
11	8775	1258	60
11	8819	1264	59
11	8826	1265	60
11	8848	1267	59
11	8853	1268	60
11	8881	1272	59
11	8887	1273	60
11	8894	1273	59
11	8898	1274	60
11	8923	1277	59
11	8927	1278	60
11	8959	1283	59
11	8960	1283	58
11	8964	1284	59
11	8965	1284	60
11	8974	1285	59
11	8979	1286	60
11	9007	1292	59
11	9013	1293	60
11	9024	1294	59
11	9028	1295	60
11	9030	1295	59
11	9035	1296	60
11	9099	1306	59
11	9104	1307	60
11	9145	1313	59
11	9151	1314	60
11	9154	1314	59
11	9163	1315	60
11	9201	1322	59
11	9207	1323	60
11	9217	1323	59
11	9223	1324	60
11	9275	1335	59
11	9279	1336	60
11	9298	1338	59
11	9301	1339	60
11	9366	1347	59
11	9369	1348	60
11	9409	1354	59
11	9416	1355	60
11	9472	1364	59
11	9479	1365	60
11	9480	1365	59
11	9486	1366	60
11	9550	1377	59
11	9553	1378	60
11	9589	1383	59
11	9594	1384	60
11	9635	1392	59
11	9640	1393	60
11	9655	1394	59
11	9662	1395	60
11	9705	1405	59
11	9708	1406	60
11	9800	1421	59
11	9807	1422	60
11	9825	1423	59
11	9831	1424	60
11	9884	1432	59
11	9891	1433	60
11	9899	1433	59
11	9900	1433	58
11	9905	1434	59
11	9906	1434	60
11	9916	1435	59
11	9924	1436	60
11	10008	1449	59
11	10009	1450	60
11	10027	1452	59
11	10032	1453	60
11	10040	1453	59
11	10044	1454	60
11	10099	1463	59
11	10100	1463	58
11	10105	1464	59
11	10106	1464	60
11	10108	1464	59
11	10115	1465	60
11	10117	1465	59
11	10126	1466	60
11	10163	1472	59
11	10169	1473	60
11	10218	1481	59
11	10226	1482	60
11	10237	1482	59
11	10244	1483	60
11	10248	1483	59
11	10251	1483	58
11	10254	1484	59
11	10256	1484	60
11	10259	1484	59
11	10267	1485	60
11	10268	1485	59
11	10275	1486	60
11	10317	1494	59
11	10318	1494	58
11	10321	1495	59
11	10322	1495	60
11	10330	1496	59
11	10340	1497	60
11	10358	1501	59
11	10365	1502	60
11	10426	1510	59
11	10427	1511	60
11	10453	1513	59
11	10457	1514	60
11	10500	1521	59
11	10507	1522	60
11	10526	1523	59
11	10533	1524	60
11	10568	1530	59
11	10569	1531	60
11	10628	1540	59
11	10629	1541	60
11	10654	1543	59
11	10660	1544	60
11	10723	1553	59
11	10728	1553	58
11	10732	1554	59
11	10735	1554	60
11	10738	1554	59
11	10744	1555	60
11	10746	1555	59
11	10751	1556	60
11	10784	1563	59
11	10785	1563	58
11	10789	1564	59
11	10790	1564	60
11	10800	1565	59
11	10809	1566	60
11	10817	1566	59
11	10820	1567	60
11	10841	1572	59
11	10847	1573	60
11	10875	1576	59
11	10878	1577	60
11	10923	1583	59
11	10928	1584	60
11	10960	1590	59
11	10961	1591	60
11	10977	1592	59
11	10983	1593	60
11	10990	1593	59
11	10996	1594	60
11	11046	1603	59
11	11051	1604	60
11	11103	1613	59
11	11106	1613	58
11	11110	1614	59
11	11112	1614	60
11	11121	1615	59
11	11130	1616	60
11	11137	1616	59
11	11141	1617	60
11	11159	1622	59
11	11161	1622	58
11	11165	1623	59
11	11166	1623	60
11	11178	1624	59
11	11190	1625	60
11	11195	1625	59
11	11197	1626	60
11	11221	1632	59
11	11227	1633	60
11	11232	1633	59
11	11239	1633	58
11	11242	1634	59
11	11245	1634	60
11	11246	1634	59
11	11253	1635	60
11	11254	1635	59
11	11259	1636	60
11	11283	1642	59
11	11289	1643	60
11	11328	1649	59
11	11329	1650	60
11	11345	1652	59
11	11351	1653	60
11	11388	1659	59
11	11389	1660	60
11	11415	1663	59
11	11419	1664	60
11	11421	1664	59
11	11423	1664	58
11	11428	1665	59
11	11429	1665	60
11	11439	1666	59
11	11447	1667	60
11	11511	1678	59
11	11513	1679	60
11	11571	1688	59
11	11575	1689	60
11	11608	1693	59
11	11612	1694	60
11	11663	1702	59
11	11669	1703	60
11	11676	1703	59
11	11682	1704	60
11	11723	1712	59
11	11729	1713	60
11	11774	1719	59
11	11775	1720	60
11	11807	1724	59
11	11812	1725	60
11	11831	1727	59
11	11834	1728	60
11	11875	1733	59
11	11876	1733	58
11	11880	1734	59
11	11881	1734	60
11	11883	1734	59
11	11885	1734	58
11	11891	1735	59
11	11893	1735	60
11	11894	1735	59
11	11903	1736	60
11	11905	1736	59
11	11914	1737	60
11	11943	1742	59
11	11945	1742	58
11	11949	1743	59
11	11951	1743	60
11	11960	1744	59
11	11966	1744	58
11	11970	1745	59
11	11975	1745	60
11	11984	1746	59
11	11989	1746	58
11	11992	1747	59
11	11993	1747	60
11	11997	1748	59
11	12000	1749	60
11	12015	1752	59
11	12017	1752	58
11	12021	1753	59
11	12023	1753	60
11	12033	1753	59
11	12035	1754	60
11	12039	1754	59
11	12047	1755	60
11	12082	1763	59
11	12088	1764	60
11	12143	1772	59
11	12147	1773	60
11	12175	1776	59
11	12178	1777	60
11	12211	1782	59
11	12215	1783	60
11	12246	1787	59
11	12248	1788	60
11	12282	1794	59
11	12288	1795	60
