version 2
run conf2-0-20161125-01:35:54-636
attr configname conf2
attr datetime 20161125-01:35:54
attr experiment conf2
attr i 10
attr inifile omnetpp.ini
attr iterationvars "$i=10, $p=1"
attr iterationvars2 "$i=10, $p=1, $repetition=0"
attr measurement "$i=10, $p=1"
attr network Omrezje
attr p 1
attr processid 636
attr repetition 0
attr replication #0
attr resultdir results
attr runnumber 0
attr seedset 0
param Omrezje.router*.processingTime "truncnormal(${p = 1..2 step 1}, ${p} * 0.5)"
param Omrezje.source*.interArrivalTime "truncnormal(${i = 10..15 step 5}, ${i} * 0.5)"

vector 0  Omrezje.router  droppedPackage:vector  ETV
attr interpolationmode  none
attr title  "drop package, vector"
vector 1  Omrezje.router  queueLength:vector  ETV
attr interpolationmode  none
attr title  "queue length, vector"
vector 2  Omrezje.router1  droppedPackage:vector  ETV
attr interpolationmode  none
attr title  "drop package, vector"
vector 3  Omrezje.router1  queueLength:vector  ETV
attr interpolationmode  none
attr title  "queue length, vector"
vector 4  Omrezje.router2  droppedPackage:vector  ETV
attr interpolationmode  none
attr title  "drop package, vector"
vector 5  Omrezje.router2  queueLength:vector  ETV
attr interpolationmode  none
attr title  "queue length, vector"
vector 6  Omrezje.router3  droppedPackage:vector  ETV
attr interpolationmode  none
attr title  "drop package, vector"
vector 7  Omrezje.router3  queueLength:vector  ETV
attr interpolationmode  none
attr title  "queue length, vector"
vector 8  Omrezje.router4  droppedPackage:vector  ETV
attr interpolationmode  none
attr title  "drop package, vector"
vector 9  Omrezje.router4  queueLength:vector  ETV
attr interpolationmode  none
attr title  "queue length, vector"
vector 10  Omrezje.router5  droppedPackage:vector  ETV
attr interpolationmode  none
attr title  "drop package, vector"
vector 11  Omrezje.router5  queueLength:vector  ETV
attr interpolationmode  none
attr title  "queue length, vector"
0	0	0	0
1	0	0	0
1	182	3.426285337517	59
1	195	4.852570675034	58
1	196	4.868675728723	59
1	208	6.29496106624	60
1	213	6.311066119929	59
1	225	7.360551514741	58
1	234	7.753456511135	59
1	239	8.177439532371	60
1	242	8.802941905947	59
1	247	9.195846902341	60
1	254	10.245332297153	59
1	267	11.599775643907	58
1	268	11.687722688359	59
1	275	12.262027451036	58
1	277	12.912488673536	59
1	280	13.042166035113	60
1	282	13.130113079565	59
1	287	13.537991047112	58
1	289	13.704417842242	59
1	294	14.322668957364	58
1	296	14.354879064742	59
1	299	14.46845137263	58
1	300	14.572503470771	59
1	304	14.980381438318	60
1	308	15.146808233448	59
1	315	15.748954294881	58
1	316	15.76505934857	59
1	320	15.797269455948	60
1	325	15.910841763836	59
1	326	16.014893861977	60
1	338	16.589198624654	59
1	341	17.191344686087	60
1	342	17.207449739776	59
1	348	17.353232155042	60
1	360	18.03158901586	59
1	379	18.649840130982	60
1	391	19.473979407066	59
1	394	19.651208408484	58
1	397	19.773265950297	57
1	403	20.916369798272	58
1	409	21.09359879969	59
1	412	21.215656341503	60
1	429	22.358760189478	59
1	431	22.366481902177	58
1	432	22.382586955866	59
1	437	22.535989190896	60
1	458	23.801150580684	59
1	459	23.808872293383	60
1	460	23.824977347072	59
1	474	25.24354097189	60
1	475	25.267367738278	59
1	496	26.709758129484	60
1	501	27.117636097031	59
1	510	27.65506862759	58
1	512	27.749123311775	57
1	519	28.560026488237	58
1	527	29.097459018796	59
1	529	29.191513702981	60
1	532	29.373041594204	59
1	539	30.002416879443	60
1	553	30.539849410002	59
1	558	30.81543198541	60
1	572	31.799299520087	59
1	576	31.982239801208	60
1	585	32.786082353108	59
1	589	33.241689911293	60
1	592	33.262865522024	59
1	600	34.228472744314	60
1	605	34.66797524881	59
1	610	34.70525591323	60
1	625	35.770846361731	59
1	632	36.110365640016	60
1	641	37.213236752937	59
1	652	37.557826588264	58
1	661	38.655627144143	59
1	664	39.00021697947	60
1	678	40.098017535349	59
1	685	40.505895502896	58
1	695	41.540407926555	59
1	699	41.76328828066	58
1	701	41.948285894102	59
1	717	42.982798317761	60
1	727	43.205678671866	59
1	728	43.390676285308	60
1	752	44.615858955694	59
1	755	44.648069063072	60
1	767	46.0582493469	59
1	776	47.500639738106	60
1	783	48.179123529662	59
1	796	49.621513920868	60
1	799	49.975993785226	59
1	809	50.792881802856	60
1	819	51.418384176432	59
1	827	52.467227175857	58
1	829	52.860774567638	59
1	835	53.31013725518	58
1	843	53.909617567063	59
1	849	54.303164958844	60
1	855	54.752527646386	59
1	858	55.352007958269	60
1	863	55.511825890332	59
1	865	55.527930944021	60
1	870	56.194918037592	59
1	879	56.954216281538	60
1	885	57.155735633878	59
1	891	57.637308428798	60
1	905	58.598126025084	59
1	920	60.04051641629	60
1	926	60.262980085186	59
1	929	60.640717482247	58
1	940	61.64493242099	57
1	943	61.705370476392	58
1	947	62.083107873453	59
1	950	62.134581509714	58
1	954	63.087322812196	59
1	956	63.147760867598	60
1	962	63.525498264659	59
1	968	63.572164706216	58
1	969	63.57697190092	59
1	971	63.712825185772	58
1	976	64.529713203402	59
1	988	64.967888655865	60
1	992	64.998029226351	59
1	993	65.014555097422	60
1	994	65.019362292126	59
1	998	65.155215576978	60
1	1009	65.934828087051	59
1	1011	65.972103594608	60
1	1020	66.440419617557	59
1	1021	66.461752683332	60
1	1030	67.377218478257	59
1	1032	67.382283878436	58
1	1041	67.882810008763	59
1	1058	68.819608869463	60
1	1060	68.824674269642	59
1	1065	68.916190349886	58
1	1075	69.325200399969	59
1	1079	69.733078367516	60
1	1088	70.240493126154	59
1	1090	70.267064660848	60
1	1095	70.358580741092	59
1	1099	70.767590791175	60
1	1102	71.68288351736	59
1	1104	71.800971132298	60
1	1112	73.125273908566	59
1	1124	74.567664299772	60
1	1128	75.23556622066	59
1	1146	76.677956611866	60
1	1171	78.347641449682	59
1	1189	79.149418305576	58
1	1200	79.790031840888	59
1	1216	80.591808696782	60
1	1227	81.232422232094	59
1	1254	82.6748126233	60
1	1273	83.465927608708	59
1	1282	83.938225791011	60
1	1288	84.096219608288	59
1	1299	84.908317999914	60
1	1311	85.538609999494	59
1	1314	85.739090591009	58
1	1323	86.9810003907	59
1	1325	87.181480982215	60
1	1339	88.423390781906	59
1	1350	89.227233333806	58
1	1354	89.865781173112	59
1	1361	90.669623725012	60
1	1364	90.890974560324	59
1	1365	91.308171564318	60
1	1370	91.509740553521	59
1	1384	92.33336495153	60
1	1399	92.952130944727	59
1	1407	93.408324073341	60
1	1410	93.743545235358	59
1	1418	94.394521335933	60
1	1425	95.185935626564	59
1	1436	96.62832601777	60
1	1455	98.262471553297	59
1	1457	98.459037446565	58
1	1462	99.489260784842	57
1	1466	99.704861944503	58
1	1472	99.901427837771	59
1	1480	100.931651176048	60
1	1484	101.042893262608	59
1	1486	101.147252335709	60
1	1491	101.343818228977	59
1	1494	101.40822070165	58
1	1509	102.485283653814	59
1	1511	102.557432619537	58
1	1517	102.786208620183	59
1	1519	102.850611092856	60
1	1525	102.878422355671	59
1	1531	103.411710993759	58
1	1537	103.92767404502	59
1	1541	103.983717957054	58
1	1542	103.999823010743	59
1	1546	104.228599011389	60
1	1550	104.320812746877	59
1	1561	104.854101384965	60
1	1569	105.370064436226	59
1	1570	105.42610834826	60
1	1572	105.442213401949	59
1	1578	105.763203138083	60
1	1587	106.812454827432	59
1	1588	106.884603793155	60
1	1591	107.143706789534	59
1	1601	108.254845218638	60
1	1606	108.58609718074	59
1	1621	109.751288235878	58
1	1623	110.028487571946	59
1	1635	111.193678627084	60
1	1637	111.470877963152	59
1	1644	112.332415584312	58
1	1646	112.348520638001	59
1	1647	112.913268354358	60
1	1651	113.758700921829	59
1	1653	113.774805975518	60
1	1655	113.790911029207	59
1	1663	115.184986259346	58
1	1664	115.201091313035	59
1	1665	115.233301420413	60
1	1682	116.627376650552	59
1	1683	116.643481704241	60
1	1691	118.069767041758	59
1	1693	118.085872095447	58
1	1702	119.512157432964	59
1	1706	119.528262486653	60
1	1713	120.013315686914	59
1	1725	120.95454782417	60
1	1728	121.001730902701	59
1	1732	121.28986484198	58
1	1733	121.45570607812	59
1	1735	121.818618920331	60
1	1746	122.444121293907	59
1	1747	122.732255233186	60
1	1748	122.898096469326	59
1	1769	123.886511685113	60
1	1771	124.340486860532	59
1	1785	125.144329412432	58
1	1787	125.233403836721	57
1	1789	125.782877251738	58
1	1792	126.553668061496	59
1	1794	126.586719803638	60
1	1797	126.659689174238	59
1	1798	126.675794227927	60
1	1803	127.225267642944	59
1	1807	127.996058452702	60
1	1810	128.102079565444	59
1	1813	128.66765803415	60
1	1818	129.512259849272	59
1	1820	129.54446995665	60
1	1835	130.954650240478	59
1	1851	132.397040631684	60
1	1870	133.791115861823	59
1	1883	135.233506253029	60
1	1902	136.023766343826	59
1	1915	136.643686536857	58
1	1923	137.466156735032	59
1	1927	138.086076928063	60
1	1931	138.711579301639	59
1	1933	138.908547126238	60
1	1944	139.496257211891	59
1	1946	139.941927467361	58
1	1948	140.153969692845	59
1	1959	140.922542549408	58
1	1960	140.938647603097	59
1	1970	141.17150898231	58
1	1971	141.384317858567	59
1	1974	141.596360084051	60
1	1981	142.221862457627	59
1	1986	142.381037994303	60
1	1988	142.826708249773	59
1	1995	143.664252848833	60
1	2007	144.269098640979	59
1	2020	145.711489032185	60
1	2041	148.053969236993	59
1	2056	149.496359628199	60
1	2063	150.799398040022	59
1	2065	150.906539912027	58
1	2069	152.241788431228	59
1	2077	153.684178822434	60
1	2082	153.759110587061	59
1	2094	155.201500978267	60
1	2103	155.93041176554	59
1	2107	156.611681262095	58
1	2113	157.372802156746	59
1	2119	158.037966599612	58
1	2129	158.815192547952	59
1	2132	159.440694921528	58
1	2135	159.464251937129	57
1	2139	160.257582939158	58
1	2159	161.699973330364	59
1	2181	163.14236372157	60
1	2184	163.617173173186	59
1	2195	165.059563564392	60
1	2200	165.169393287197	59
1	2217	166.611783678403	60
1	2252	170.874534637265	59
1	2262	172.300819974782	58
1	2263	172.316925028471	59
1	2275	173.759315419677	60
1	2285	175.153390649816	59
1	2295	176.579675987333	58
1	2296	176.595781041022	59
1	2309	178.038171432228	60
1	2357	181.58548039313	59
1	2369	182.284817337401	58
1	2374	183.027870784336	59
1	2382	183.711102674918	58
1	2387	184.470261175542	59
1	2391	185.137388012435	58
1	2393	185.912651566748	59
1	2417	187.355041957954	60
1	2427	187.989958687469	59
1	2441	189.432349078675	60
1	2463	191.847507844166	59
1	2470	193.289898235372	60
1	2475	193.695100037537	59
1	2486	195.137490428743	60
1	2511	197.973956050088	59
1	2523	199.416346441294	60
1	2540	201.497566302506	59
1	2567	202.939956693712	60
1	2635	207.24054902072	59
1	2646	208.682939411926	60
1	2674	212.236809425258	59
1	2678	212.371562746238	58
1	2685	213.663094762775	57
1	2686	213.679199816464	58
1	2704	215.089380100292	57
1	2705	215.12159020767	58
1	2717	216.563980598876	59
1	2734	217.941950775326	58
1	2737	218.006370990082	59
1	2740	218.631873363658	58
1	2751	219.448761381288	59
1	2760	220.69808554363	58
1	2763	220.891151772494	59
1	2777	222.3335421637	60
1	2797	223.647092125394	59
1	2815	225.0894825166	60
1	2821	225.172812008331	59
1	2827	225.64959302449	58
1	2842	226.499662800428	57
1	2844	226.615202399537	58
1	2857	227.925948137945	57
1	2858	228.057592790743	58
1	2875	229.352233475462	57
1	2876	229.499983181949	58
1	2886	230.942373573155	59
1	2892	232.384763964361	60
1	2899	232.89561764831	59
1	2920	234.338008039516	60
1	2928	236.483660163047	59
1	2934	237.926050554253	60
1	2998	243.157645099346	59
1	3009	243.615086850632	58
1	3017	244.600035490552	59
1	3024	245.041372188149	58
1	3032	246.042425881758	59
1	3039	247.484816272964	60
1	3055	248.288658824864	59
1	3066	249.73104921607	60
1	3069	250.746513538217	59
1	3076	252.172798875734	58
1	3077	252.188903929423	59
1	3091	253.631294320629	60
1	3121	256.451654888285	59
1	3136	257.894045279491	60
1	3140	258.5506862759	59
1	3146	259.304225563319	58
1	3148	259.993076667106	59
1	3160	261.435467058312	60
1	3175	263.053205137651	59
1	3181	263.58308157587	58
1	3198	264.495595528857	59
1	3219	265.937985920063	60
1	3234	267.788254278816	59
1	3248	268.812713726936	58
1	3249	269.230644670022	59
1	3268	270.673035061228	60
1	3291	272.140793600972	59
1	3301	273.583183992178	60
1	3309	273.943727452454	59
1	3316	275.38611784366	60
1	3339	279.074741177972	59
1	3359	280.517131569178	60
1	3382	282.124790963591	59
1	3397	283.551076301108	58
1	3398	283.567181354797	59
1	3408	284.20575490349	58
1	3417	285.009571746003	59
1	3430	286.451962137209	60
1	3453	289.336768629008	59
1	3459	290.779159020214	60
1	3472	292.10878832621	59
1	3486	293.551178717416	60
1	3528	296.387644338761	59
1	3535	297.813929676278	58
1	3536	297.830034729967	59
1	3540	299.240215013795	58
1	3542	299.272425121173	59
1	3549	299.598796080044	58
1	3557	300.666500351312	57
1	3558	300.714815512379	58
1	3563	302.092785688829	57
1	3564	302.157205903585	58
1	3573	303.519071026346	57
1	3574	303.599596294791	58
1	3589	304.945356363863	57
1	3590	305.041986685997	58
1	3604	306.484377077203	59
1	3621	307.926767468409	60
1	3624	308.552269841985	59
1	3641	309.86082353108	58
1	3642	309.994660233191	59
1	3655	311.437050624397	60
1	3661	312.076783051448	59
1	3669	313.519173442654	60
1	3678	314.929353726482	59
1	3681	314.991837256598	58
1	3693	316.371744117688	59
1	3703	317.781924401516	58
1	3704	317.814134508894	59
1	3718	319.2565249001	60
1	3726	320.10630624528	59
1	3732	320.122850982116	58
1	3739	320.63449507655	57
1	3749	321.548696636486	58
1	3755	322.060780414067	57
1	3758	322.174199010062	56
1	3770	322.991087027692	57
1	3774	323.487065751584	56
1	3781	324.433477418898	57
1	3789	325.253864707634	56
1	3790	325.875867810104	57
1	3796	326.339636426618	56
1	3803	327.31825820131	57
1	3806	327.765921764135	56
1	3812	328.760648592516	57
1	3822	330.203038983722	58
1	3826	330.384878433152	57
1	3837	331.645429374928	58
1	3843	332.044777776686	57
1	3848	333.087819766134	58
1	3859	334.078942255126	57
1	3862	334.53021015734	58
1	3879	335.51589215867	57
1	3880	335.972600548546	58
1	3896	337.414990939752	59
1	3901	337.749919126754	58
1	3910	338.857381330958	59
1	3922	340.299771722164	60
1	3925	340.602489801788	59
1	3930	340.92527409574	58
1	3944	342.044880192994	59
1	3962	343.4872705842	60
1	3968	343.549040537456	59
1	3977	344.991430928662	60
1	4015	347.733916489373	59
1	4029	349.16020182689	58
1	4030	349.176306880579	59
1	4043	350.586487164407	58
1	4045	350.618697271785	59
1	4051	350.908933335224	58
1	4062	352.061087662991	59
1	4077	353.503478054197	60
1	4112	357.754187960951	59
1	4133	359.196578352157	60
1	4140	359.86959452594	59
1	4145	360.570484527026	58
1	4149	361.311984917146	59
1	4163	361.937487290722	58
1	4176	362.489237102116	57
1	4179	362.754375308352	58
1	4197	364.196765699558	59
1	4207	365.639156090764	60
1	4215	366.275625877094	59
1	4219	366.301974511778	58
1	4226	367.224286243281	57
1	4230	367.7180162683	58
1	4242	369.160406659506	59
1	4253	370.554481889645	58
1	4254	370.602797050712	59
1	4269	372.045187441918	60
1	4278	373.407052564679	59
1	4288	374.833337902196	58
1	4289	374.849442955885	59
1	4301	376.259623239713	58
1	4302	376.291833347091	59
1	4312	376.564001962814	58
1	4317	377.68590857723	57
1	4324	377.734223738297	58
1	4336	379.112193914747	57
1	4337	379.176614129503	58
1	4347	380.538479252264	57
1	4348	380.619004520709	58
1	4360	381.695015688332	57
1	4366	382.061394911915	58
1	4374	383.503785303121	59
1	4381	384.817335264815	58
1	4383	384.946175694327	59
1	4399	386.164482807941	58
1	4402	386.243620602332	57
1	4403	386.388566085533	58
1	4411	386.82602941385	57
1	4418	387.830956476739	58
1	4428	389.273346867945	59
1	4447	390.522476614883	58
1	4451	390.715737259151	59
1	4464	391.957043139368	58
1	4465	392.158127650357	59
1	4473	393.375047289917	58
1	4477	393.600518041563	59
1	4491	394.801332627434	58
1	4499	395.042908432769	59
1	4510	396.485298823975	60
1	4518	397.088056864886	59
1	4525	397.653903302468	58
1	4528	398.530447256092	59
1	4534	399.080188639985	58
1	4543	399.972837647298	59
1	4546	400.506473977502	58
1	4552	401.415228038504	59
1	4563	402.219070590404	58
1	4569	402.85761842971	59
1	4576	403.359044652536	58
1	4582	404.300008820916	59
1	4596	405.742399212122	60
1	4602	406.21161532757	59
1	4610	407.350084315922	58
1	4616	407.654005718776	59
1	4625	409.096396109982	60
1	4647	411.916756677638	59
1	4650	412.48109804144	58
1	4658	413.359147068844	59
1	4678	414.80153746005	60
1	4703	417.612111766958	59
1	4705	417.621898027706	58
1	4728	419.054502158164	59
1	4732	419.51452694693	58
1	4736	420.47446870274	57
1	4737	420.49689254937	58
1	4750	421.939282940576	59
1	4757	422.743125492476	58
1	4764	423.327039377774	57
1	4766	423.381673331782	58
1	4772	424.007175705358	57
1	4779	424.824063722988	58
1	4785	426.266454114194	59
1	4794	427.7088445054	60
1	4798	427.874139217994	59
1	4811	429.032180727842	58
1	4812	429.3165296092	59
1	4823	430.458466065359	58
1	4824	430.758920000406	59
1	4827	431.384422373982	58
1	4831	432.201310391612	59
1	4847	433.311036740393	58
1	4853	433.514974219591	57
1	4857	433.643700782818	58
1	4865	434.73732207791	57
1	4866	435.086091174024	58
1	4880	436.52848156523	59
1	4891	437.970871956436	60
1	4905	439.39617108726	59
1	4923	440.838561478466	60
1	4931	441.868748765495	59
1	4941	443.267180394548	58
1	4946	443.295034103012	57
1	4947	443.311139156701	58
1	4956	443.936641530277	57
1	4966	444.753529547907	58
1	4977	446.195919939113	59
1	4987	447.638310330319	60
1	4996	448.398194120066	59
1	5001	449.840584511272	60
1	5031	453.529207845584	59
1	5039	454.97159823679	60
1	5056	456.131602140665	59
1	5070	457.557887478182	58
1	5071	457.573992531871	59
1	5081	458.660221571102	58
1	5085	458.984172815699	57
1	5087	459.016382923077	58
1	5103	460.410458153216	57
1	5105	460.458773314283	58
1	5117	461.836743490733	57
1	5118	461.901163705489	58
1	5126	463.26302882825	57
1	5127	463.343554096695	58
1	5131	463.79123529662	57
1	5142	464.689314165767	56
1	5144	464.785944487901	57
1	5156	466.115599503284	56
1	5157	466.228334879107	57
1	5160	467.541884840801	56
1	5162	467.670725270313	57
1	5175	468.922249022138	56
1	5180	469.113115661519	57
1	5189	470.555506052725	58
1	5206	471.820740853352	57
1	5207	471.997896443931	58
1	5221	473.440286835137	59
1	5229	474.053262747656	58
1	5237	474.673311528386	57
1	5240	474.882677226343	58
1	5248	475.508179599919	57
1	5260	476.099596865903	56
1	5262	476.325067617549	57
1	5268	477.52588220342	56
1	5269	477.767458008755	57
1	5277	479.15945936792	56
1	5281	479.209848399961	57
1	5298	480.652238791167	58
1	5307	481.804738215971	57
1	5308	482.094629182373	58
1	5312	483.231023553488	57
1	5319	483.537019573579	58
1	5322	484.162521947155	57
1	5329	484.315290198692	56
1	5331	484.657308891005	55
1	5337	484.979409964785	56
1	5343	486.421800355991	57
1	5352	487.509879566039	56
1	5353	487.864190747197	57
1	5360	489.306581138403	58
1	5385	490.748971529609	59
1	5397	492.191361920815	60
1	5410	493.215020916107	59
1	5418	494.641306253624	58
1	5420	494.657411307313	59
1	5433	496.099801698519	60
1	5450	499.04110350825	59
1	5459	499.708331375246	58
1	5464	500.346447603692	57
1	5466	500.483493899456	58
1	5472	501.108996273032	57
1	5480	501.772732941209	56
1	5481	501.925884290662	57
1	5490	503.368274681868	58
1	5501	504.625303616243	57
1	5502	504.810665073074	58
1	5506	504.839345100764	57
1	5512	506.05158895376	56
1	5514	506.25305546428	57
1	5523	507.695445855486	58
1	5535	508.904159628794	57
1	5536	509.137836246692	58
1	5542	509.970358826282	57
1	5548	510.580226637898	58
1	5563	512.022617029104	59
1	5579	513.46500742031	60
1	5593	515.1013725518	59
1	5599	516.035586316379	58
1	5600	516.543762943006	59
1	5612	517.986153334212	60
1	5623	518.745858760561	59
1	5626	518.888156991413	58
1	5632	520.188249151767	59
1	5636	520.232386277318	58
1	5638	520.31444232893	57
1	5642	521.630639542973	58
1	5646	521.740727666447	57
1	5654	523.073029934179	58
1	5667	524.515420325385	59
1	5684	525.957810716591	60
1	5687	526.019583678998	59
1	5694	527.445869016515	58
1	5696	527.461974070204	59
1	5706	528.215957042891	58
1	5711	528.872154354032	57
1	5712	528.90436446141	58
1	5715	530.298439691549	57
1	5716	530.346754852616	58
1	5738	531.789145243822	59
1	5744	532.414647617398	58
1	5747	532.951006184056	57
1	5754	533.231535635028	58
1	5767	534.5772957041	57
1	5768	534.673926026234	58
1	5780	535.625427453872	57
1	5785	536.11631641744	58
1	5801	537.429866379134	57
1	5803	537.558706808646	58
1	5812	538.80439178891	57
1	5815	539.001097199852	58
1	5833	540.443487591058	59
1	5840	540.75644117939	58
1	5851	541.708722391685	57
1	5856	541.885877982264	58
1	5866	542.51138035584	57
1	5872	543.135007729202	56
1	5873	543.32826837347	57
1	5884	544.770658764676	58
1	5891	545.887454904908	57
1	5899	546.213049155882	58
1	5910	547.413863741753	57
1	5916	547.655439547088	58
1	5922	548.84014907927	57
1	5923	549.097829938294	58
1	5939	550.5402203295	59
1	5944	551.018468630426	58
1	5958	551.982610720706	59
1	5970	553.425001111912	60
1	5978	554.545290429338	59
1	5987	555.987680820544	60
1	6043	561.676717116923	59
1	6065	563.119107508129	60
1	6086	564.529287791957	59
1	6107	565.971678183163	60
1	6111	566.096350172211	59
1	6121	567.381858466991	58
1	6122	567.538740563417	59
1	6137	568.808143804508	58
1	6138	568.981130954623	59
1	6153	570.234429142025	58
1	6155	570.423521345829	59
1	6168	571.542523532498	58
1	6173	571.865911737035	59
1	6184	573.308302128241	60
1	6209	575.939570492093	59
1	6214	576.673537258016	58
1	6224	577.36585582961	57
1	6226	577.381960883299	58
1	6238	578.56768006957	57
1	6240	578.792141167127	56
1	6241	578.824351274505	57
1	6252	580.218426504644	56
1	6254	580.266741665711	57
1	6260	581.644711842161	56
1	6261	581.709132056917	57
1	6280	583.151522448123	58
1	6294	584.497282517195	57
1	6296	584.593912839329	58
1	6299	585.036546736871	57
1	6311	586.036303230535	58
1	6321	587.349853192229	57
1	6325	587.478693621741	58
1	6333	588.776138529746	57
1	6335	588.921084012947	58
1	6345	590.363474404153	59
1	6366	591.62870920478	58
1	6368	591.805864795359	59
1	6390	593.248255186565	60
1	6421	597.197592160088	59
1	6432	598.639982551294	60
1	6443	599.241694160366	59
1	6452	600.684084551572	60
1	6463	601.612706567399	59
1	6476	603.055096958605	60
1	6506	605.89156257995	59
1	6519	607.333952971156	60
1	6524	607.459619611124	59
1	6536	608.711792442696	58
1	6540	608.90201000233	59
1	6546	610.170418592501	58
1	6547	610.344400393536	59
1	6556	611.786790784742	60
1	6565	612.590633336642	59
1	6576	614.033023727848	60
1	6583	614.449274605052	59
1	6594	615.891664996258	60
1	6605	617.301845280086	59
1	6611	617.72164706216	58
1	6625	618.744235671292	59
1	6637	620.186626062498	60
1	6714	627.285842642705	59
1	6730	628.728233033911	60
1	6741	630.138413317739	59
1	6755	631.564698655256	58
1	6757	631.580803708945	59
1	6769	633.023194100151	60
1	6786	634.41726933029	59
1	6796	635.859659721496	60
1	6819	638.245701964232	59
1	6829	639.688092355438	60
1	6857	641.857136430851	59
1	6864	643.299526822057	60
1	6870	643.37671568975	59
1	6880	644.401266692909	58
1	6881	644.819106080956	59
1	6886	645.827552030426	58
1	6890	646.261496472162	59
1	6899	647.703886863368	60
1	6953	653.638743140786	59
1	6958	655.081133531992	60
1	6999	658.09425663089	59
1	7003	658.664120068079	58
1	7006	658.769756866304	57
1	7012	659.536647022096	58
1	7028	660.797332995511	57
1	7030	660.979037413302	58
1	7045	662.421427804508	59
1	7053	662.94297608063	58
1	7057	663.863818195714	59
1	7077	665.30620858692	60
1	7087	665.931710960496	59
1	7102	667.374101351702	60
1	7111	668.648117430698	59
1	7115	669.03178431734	58
1	7125	670.090507821904	59
1	7143	671.53289821311	60
1	7166	674.353258780766	59
1	7184	675.795649171972	60
1	7211	678.632114793317	59
1	7233	680.074505184523	60
1	7247	680.700007558099	59
1	7257	681.484685468351	58
1	7266	682.142397949305	59
1	7276	683.584788340511	60
1	7287	684.337256143385	59
1	7291	684.424825493894	58
1	7298	685.763541480902	57
1	7299	685.779646534591	58
1	7309	687.189826818419	57
1	7310	687.222036925797	58
1	7322	688.664427317003	59
1	7327	689.289929690579	58
1	7331	689.555839219412	57
1	7333	690.042397493453	56
1	7337	690.106817708209	57
1	7347	691.549208099415	58
1	7355	692.991598490621	59
1	7363	694.321253506004	58
1	7364	694.433988881827	59
1	7376	695.876379273033	60
1	7395	697.173824181038	59
1	7413	698.616214572244	60
1	7456	702.878965531106	59
1	7460	703.412775265996	58
1	7464	704.321355922312	59
1	7477	704.948880395966	58
1	7480	705.763746313518	59
1	7491	707.157821543657	58
1	7492	707.206136704724	59
1	7506	708.64852709593	60
1	7515	710.010392218691	59
1	7519	710.079894121484	58
1	7529	711.436677556208	57
1	7530	711.452782609897	58
1	7538	712.862962893725	57
1	7539	712.895173001103	58
1	7548	714.289248231242	57
1	7552	714.337563392309	58
1	7558	715.210907847002	57
1	7566	715.779953783515	58
1	7582	717.222344174721	59
1	7587	717.73918905188	58
1	7592	718.568104243793	57
1	7594	718.664734565927	58
1	7600	720.107124957133	59
1	7604	720.34192157252	58
1	7609	720.732627330709	57
1	7617	721.549515348339	58
1	7630	722.352971830656	57
1	7636	722.846960256344	56
1	7637	722.991905739545	57
1	7645	724.273245593861	56
1	7646	724.434296130751	57
1	7655	725.472935298038	56
1	7657	725.699530931378	55
1	7658	725.876686521957	56
1	7670	727.125816268895	55
1	7672	727.319076913163	56
1	7678	728.761467304369	57
1	7690	730.203857695575	58
1	7696	730.603949023556	57
1	7710	731.229451397132	56
1	7713	731.404672281446	55
1	7716	731.646248086781	56
1	7726	732.830957618963	55
1	7727	733.088638477987	56
1	7736	734.531028869193	57
1	7741	735.683528293997	56
1	7745	735.734962749074	55
1	7749	735.973419260399	56
1	7752	737.109813631514	55
1	7753	737.415809651605	56
1	7771	738.536098969031	55
1	7773	738.858200042811	56
1	7785	740.300590434017	57
1	7792	740.865976474592	56
1	7803	741.742980825223	57
1	7813	742.814954981582	56
1	7814	743.185371216429	57
1	7821	744.241240319099	56
1	7823	744.627761607635	57
1	7835	745.667525656616	56
1	7841	745.99699020011	55
1	7842	746.070151998841	56
1	7850	747.512542390047	57
1	7858	748.954932781253	58
1	7868	749.946381669167	57
1	7876	750.397323172459	58
1	7884	751.022825546035	57
1	7888	751.128003925628	56
1	7895	751.839713563665	57
1	7903	753.282103954871	58
1	7915	754.724494346077	59
1	7923	755.651523019235	58
1	7924	756.166884737283	59
1	7942	757.609275128489	60
1	7992	762.78294970682	59
1	7999	764.209235044337	58
1	8003	764.225340098026	59
1	8016	765.635520381854	58
1	8017	765.667730489232	59
1	8021	766.521045102182	58
1	8025	767.061805719371	57
1	8027	767.110120880438	58
1	8033	768.552511271644	59
1	8047	769.914376394405	58
1	8048	769.99490166285	59
1	8059	771.437292054056	60
1	8087	774.193232406956	59
1	8093	775.635622798162	60
1	8097	776.783072553218	59
1	8114	778.225462944424	60
1	8121	778.472088419507	59
1	8135	779.898373757024	58
1	8137	779.914478810713	59
1	8147	781.324659094541	58
1	8148	781.356869201919	59
1	8155	781.914086278736	58
1	8160	782.799259593125	59
1	8171	784.241649984331	60
1	8205	788.456085782126	59
1	8215	789.898476173332	60
1	8226	791.30865645716	59
1	8245	792.734941794677	58
1	8247	792.751046848366	59
1	8263	794.193437239572	60
1	8290	797.2657656132	59
1	8293	797.30712745529	58
1	8301	798.708156004406	59
1	8307	799.866368482262	58
1	8311	800.150546395612	59
1	8320	801.292653819779	58
1	8321	801.592936786818	59
1	8331	802.438141180808	58
1	8339	803.035327178024	59
1	8353	804.47771756923	60
1	8380	806.997795169847	59
1	8385	807.583856371626	58
1	8393	808.424080507364	57
1	8395	808.440185561053	58
1	8406	809.882575952259	59
1	8415	811.324966343465	60
1	8429	812.700168631844	59
1	8439	814.129221857432	58
1	8441	814.14255902305	59
1	8450	815.584949414256	60
1	8467	817.053954653956	59
1	8471	817.14740975353	58
1	8480	817.831182357362	57
1	8487	818.496345045162	58
1	8499	819.938735436368	59
1	8507	820.564237809944	58
1	8517	821.381125827574	59
1	8525	822.686933882534	58
1	8526	822.82351621878	59
1	8530	822.96219608288	58
1	8540	824.265906609986	59
1	8554	825.708297001192	60
1	8568	826.965789895085	59
1	8584	828.408180286291	60
1	8600	829.818360570119	59
1	8615	831.260750961325	60
1	8621	831.886253334901	59
1	8629	832.670931245153	58
1	8635	833.224223533916	57
1	8638	833.328643726107	58
1	8647	834.771034117313	59
1	8664	835.994151218616	58
1	8666	836.213424508519	59
1	8671	836.949787257704	58
1	8674	837.02905389386	57
1	8680	837.655814899725	58
1	8684	838.355237259434	57
1	8689	839.098205290931	58
1	8695	839.723707664507	57
1	8710	840.540595682137	58
1	8715	841.166098055713	57
1	8718	841.228643270255	56
1	8720	841.982986073343	57
1	8726	842.654928607772	56
1	8727	843.425376464549	57
1	8756	844.867766855755	58
1	8759	845.507499282806	57
1	8767	846.310157246961	58
1	8781	847.752547638167	59
1	8792	848.61726471047	58
1	8795	849.194938029373	59
1	8808	849.820440402949	58
1	8813	850.637328420579	59
1	8832	852.079718811785	60
1	8870	855.491496645425	59
1	8878	856.917781982942	58
1	8880	856.933887036631	59
1	8885	857.559389410207	58
1	8894	858.344067320459	57
1	8895	858.376277427837	58
1	8911	859.818667819043	59
1	8924	861.196637995493	58
1	8925	861.261058210249	59
1	8934	862.62292333301	58
1	8937	862.703448601455	59
1	8950	864.010305887024	58
1	8956	864.145838992661	59
1	8967	865.588229383867	60
1	8995	869.141319612542	59
1	9001	870.583710003748	60
1	9010	871.180635358112	59
1	9030	872.606920695629	58
1	9032	872.623025749318	59
1	9037	873.248528122894	58
1	9045	873.874544347936	57
1	9048	874.033206033146	56
1	9049	874.065416140524	57
1	9053	874.27233333806	56
1	9059	875.50780653173	57
1	9072	876.950196922936	58
1	9085	878.312062045697	57
1	9086	878.392587314142	58
1	9089	878.609593489101	57
1	9102	879.403347063578	56
1	9108	879.834977705348	57
1	9119	881.164632720731	56
1	9120	881.277368096554	57
1	9133	882.71975848776	58
1	9139	884.162148878966	59
1	9146	884.534360789096	58
1	9156	885.443488733282	57
1	9157	885.604539270172	58
1	9169	886.869774070799	57
1	9176	887.046929661378	58
1	9190	888.489320052584	59
1	9199	889.665374514614	58
1	9206	889.93171044379	59
1	9221	891.374100834996	60
1	9231	892.574915420867	59
1	9233	892.814740912596	58
1	9242	894.017305812073	59
1	9250	894.796388240132	58
1	9257	895.459696203279	59
1	9261	896.67398631485	58
1	9265	896.853771433418	57
1	9266	896.902086594485	58
1	9272	897.549790053761	57
1	9283	898.280056770935	56
1	9284	898.344476985691	57
1	9300	899.786867376897	58
1	9315	901.132627445969	57
1	9316	901.229257768103	58
1	9330	902.284839194926	57
1	9333	902.558912783486	56
1	9338	902.671648159309	57
1	9346	903.985198121003	56
1	9348	904.114038550515	57
1	9356	905.41148345852	56
1	9360	905.556428941721	57
1	9372	906.998819332927	58
1	9377	908.264054133554	57
1	9378	908.441209724133	58
1	9387	909.883600115339	59
1	9413	911.325990506545	60
1	9425	912.542910146105	59
1	9434	913.969195483622	58
1	9435	913.985300537311	59
1	9443	915.320443142204	58
1	9446	915.427690928517	59
1	9454	916.489986618421	58
1	9458	916.55563045518	57
1	9463	916.821766158656	56
1	9464	916.870081319723	57
1	9480	918.312471710929	58
1	9486	919.67433683369	57
1	9487	919.754862102135	58
1	9504	921.100622171207	57
1	9505	921.197252493341	58
1	9521	922.639642884547	59
1	9529	923.953192846241	58
1	9530	924.082033275753	59
1	9541	925.524423666959	60
1	9545	925.58247059324	59
1	9562	927.024860984446	60
1	9571	928.232048858792	59
1	9576	929.658334196309	58
1	9577	929.674439249998	59
1	9589	930.713484318758	58
1	9591	931.084619533826	57
1	9593	931.116829641204	58
1	9599	931.295370012944	57
1	9604	932.510904871343	56
1	9605	932.55922003241	57
1	9617	934.001610423616	58
1	9630	935.363475546377	57
1	9631	935.444000814822	58
1	9635	935.844498044276	57
1	9640	936.43727459551	56
1	9643	936.886391206028	57
1	9656	938.216046221411	56
1	9657	938.328781597234	57
1	9665	939.642331558928	56
1	9666	939.77117198844	57
1	9669	940.165232324246	56
1	9677	941.213562379646	57
1	9685	941.839064753222	56
1	9697	942.655952770852	57
1	9707	944.098343162058	58
1	9722	945.540733553264	59
1	9733	946.98312394447	60
1	9780	952.478899596581	59
1	9799	953.921289987787	60
1	9802	954.370379747741	59
1	9808	955.331470271615	58
1	9811	955.812770138947	59
1	9831	957.255160530153	60
1	9870	961.036611621683	59
1	9881	962.479002012889	60
1	9892	963.889182296717	59
1	9905	965.315467634234	58
1	9906	965.331572687923	59
1	9926	966.630580397384	58
1	9929	966.773963079129	59
1	9940	968.168038309268	58
1	9941	968.216353470335	59
1	9950	969.658743861541	60
1	9958	971.020608984302	59
1	9966	972.462999375508	60
1	9986	973.873179659336	59
1	9995	975.299464996853	58
1	9996	975.315570050542	59
1	10007	976.72575033437	58
1	10009	976.757960441748	59
1	10013	976.89260784842	58
1	10031	978.200350832954	59
1	10034	978.261595031936	58
1	10048	979.64274122416	59
1	10056	981.004606346921	58
1	10057	981.085131615366	59
1	10075	982.527522006572	60
1	10130	989.562318372023	59
1	10141	991.004708763229	60
1	10179	995.267459722091	59
1	10197	996.709850113297	60
1	10200	996.985822018226	59
1	10206	997.416662750492	58
1	10215	998.120030397125	57
1	10216	998.428212409432	58
1	10230	999.870602800638	59
1	10242	1001.312993191844	60
1	10248	1002.398886409676	59
1	10251	1002.54767647601	58
1	10259	1003.841276800882	59
1	10272	1005.283667192088	60
1	10282	1006.677742422227	59
1	10289	1007.678690201528	58
1	10294	1008.104027759744	57
1	10295	1008.120132813433	58
1	10303	1009.530313097261	57
1	10305	1009.562523204639	58
1	10314	1011.004913595845	59
1	10317	1011.630415969421	58
1	10325	1012.382883772295	57
1	10327	1012.447303987051	58
1	10331	1012.809703927046	57
1	10340	1013.809169109812	56
1	10341	1013.889694378257	57
1	10350	1015.332084769463	58
1	10365	1015.96385115683	57
1	10368	1016.774475160669	58
1	10377	1017.940717652564	57
1	10379	1018.088025122363	56
1	10380	1018.216865551875	57
1	10389	1019.51431045988	56
1	10393	1019.659255943081	57
1	10399	1020.284758316657	56
1	10402	1020.940595797397	55
1	10406	1021.101646334287	56
1	10412	1022.544036725493	57
1	10416	1023.071731378082	56
1	10427	1023.793166472431	55
1	10428	1023.986427116699	56
1	10437	1025.219451809948	55
1	10438	1025.428817507905	56
1	10442	1026.871207899111	57
1	10455	1028.072022484982	56
1	10459	1028.313598290317	57
1	10469	1029.498307822499	56
1	10473	1029.755988681523	57
1	10478	1031.198379072729	58
1	10491	1032.350878497533	57
1	10492	1032.640769463935	58
1	10500	1033.77716383505	57
1	10504	1034.083159855141	58
1	10520	1035.525550246347	59
1	10538	1036.967940637553	60
1	10543	1038.056019847601	59
1	10558	1039.498410238807	60
1	10584	1042.334875860152	59
1	10596	1043.595786280154	58
1	10602	1043.777266251358	59
1	10613	1045.219656642564	60
1	10632	1048.04001721022	59
1	10646	1048.726800005672	58
1	10652	1049.482407601426	59
1	10666	1050.924797992632	60
1	10691	1053.85781373119	59
1	10699	1055.171443897805	58
1	10703	1055.300204122396	59
1	10707	1055.72713943749	58
1	10715	1056.742594513602	59
1	10724	1058.184984904808	60
1	10735	1058.810487278384	59
1	10739	1058.988827456708	58
1	10755	1060.25287766959	59
1	10760	1060.876585247873	58
1	10765	1061.695268060796	59
1	10778	1063.137658452002	60
1	10782	1063.276509994536	59
1	10790	1064.119841182226	58
1	10794	1064.718900385742	59
1	10800	1066.161290776948	60
1	10844	1070.860582610492	59
1	10856	1072.286867948009	58
1	10857	1072.302973001698	59
1	10873	1073.745363392904	60
1	10889	1075.139438623043	59
1	10903	1076.56572396056	58
1	10904	1076.581829014249	59
1	10912	1077.481657418031	58
1	10918	1078.024219405455	59
1	10932	1079.466609796661	60
1	10961	1082.216706559196	59
1	10976	1083.659096950402	60
1	10979	1083.697150648145	59
1	10991	1085.123435985662	58
1	10992	1085.139541039351	59
1	11009	1086.549721323179	58
1	11011	1086.581931430557	59
1	11027	1087.976006660696	58
1	11029	1088.024321821763	59
1	11037	1089.402291998213	58
1	11038	1089.466712212969	59
1	11057	1090.909102604175	60
1	11075	1093.681148010764	59
1	11085	1094.905923535334	58
1	11088	1095.12353840197	59
1	11101	1096.533718685798	58
1	11103	1096.565928793176	59
1	11114	1097.960004023315	58
1	11115	1098.008319184382	59
1	11129	1099.386289360832	58
1	11132	1099.450709575588	59
1	11140	1100.076211949164	58
1	11153	1100.893099966794	59
1	11164	1102.335490358	60
1	11175	1105.0914307109	59
1	11192	1105.891952265021	58
1	11203	1106.517716048417	57
1	11205	1106.533821102106	58
1	11222	1107.976211493312	59
1	11232	1109.418601884518	60
1	11248	1110.298964711888	59
1	11256	1111.741355103094	60
1	11292	1115.075428073519	59
1	11297	1115.362050547351	58
1	11301	1115.37207185848	57
1	11304	1115.429978437406	56
1	11307	1116.517818464725	57
1	11315	1117.927998748553	56
1	11316	1117.960208855931	57
1	11324	1119.402599247137	58
1	11337	1120.844989638343	59
1	11356	1122.287380029549	60
1	11373	1124.832148829681	59
1	11387	1125.692005888442	58
1	11391	1126.274539220887	59
1	11400	1127.716929612093	60
1	11406	1127.911996111172	59
1	11418	1129.338281448689	58
1	11419	1129.354386502378	59
1	11432	1130.764566786206	58
1	11436	1130.796776893584	59
1	11441	1130.82301961396	58
1	11448	1132.23916728479	59
1	11454	1132.864669658366	58
1	11463	1133.61713746124	57
1	11467	1133.681557675996	58
1	11472	1135.043422798757	57
1	11474	1135.123948067202	58
1	11485	1136.469708136274	57
1	11486	1136.566338458408	58
1	11500	1138.008728849614	59
1	11519	1139.322278811308	58
1	11520	1139.45111924082	59
1	11534	1140.893509632026	60
1	11542	1141.085047064996	59
1	11553	1142.527437456202	60
1	11583	1146.453705498893	59
1	11594	1147.896095890099	60
1	11625	1150.732561511444	59
1	11639	1152.17495190265	60
1	11658	1153.585132186478	59
1	11672	1155.011417523995	58
1	11673	1155.027522577684	59
1	11685	1156.46991296889	60
1	11718	1160.716558874063	59
1	11723	1161.609101967068	58
1	11731	1162.158949265269	59
1	11743	1163.601339656475	60
1	11761	1166.421700224131	59
1	11764	1166.740115692586	58
1	11772	1167.864090615337	59
1	11783	1169.306481006543	60
1	11797	1170.700556236682	59
1	11808	1171.871129418104	58
1	11814	1172.142946627888	59
1	11828	1173.585337019094	60
1	11856	1176.40569758675	59
1	11859	1177.002143143622	58
1	11864	1177.831982924267	57
1	11866	1177.848087977956	58
1	11880	1179.290478369162	59
1	11900	1180.684553599301	58
1	11901	1180.732868760368	59
1	11913	1182.175259151574	60
1	11934	1184.963409611852	59
1	11943	1186.405800003058	60
1	11991	1192.094836299437	59
1	11998	1192.395184320176	58
1	12003	1193.521121636954	57
1	12004	1193.537226690643	58
1	12013	1194.8986484198	57
1	12015	1194.947406974471	56
1	12016	1194.979617081849	57
1	12030	1196.373692311988	56
1	12031	1196.422007473055	57
1	12038	1197.526198045694	56
1	12041	1197.864397864261	57
1	12046	1199.306788255467	58
1	12060	1200.749178646673	59
1	12071	1202.191569037879	60
1	12078	1202.657211771212	59
1	12092	1204.099602162418	60
1	12124	1207.783975012124	59
1	12138	1209.22636540333	60
1	12160	1212.062831024675	59
1	12170	1213.505221415881	60
1	12186	1214.78029256013	59
1	12188	1214.915401699709	58
1	12201	1216.222682951336	59
1	12208	1217.665073342542	60
1	12213	1217.767972374743	59
1	12217	1218.050252947766	58
1	12232	1219.210362765949	59
1	12242	1220.620543049777	58
1	12243	1220.652753157155	59
1	12253	1222.095143548361	60
1	12258	1222.720645921937	59
1	12265	1223.181266673284	58
1	12267	1223.473113724811	57
1	12274	1224.163036313143	58
1	12279	1224.899399062328	57
1	12283	1225.605426704349	58
1	12292	1227.047817095555	59
1	12297	1227.751969737362	58
1	12303	1228.312280398802	57
1	12307	1228.490207486761	58
1	12318	1229.932597877967	59
1	12328	1231.374988269173	60
1	12347	1233.44329412432	59
1	12349	1233.45711108743	58
1	12354	1234.66193670046	57
1	12360	1234.885684515526	58
1	12376	1236.328074906732	59
1	12382	1237.770465297938	60
1	12388	1238.395967671514	59
1	12409	1239.83835806272	60
1	12415	1240.588537775015	59
1	12420	1242.030928166221	60
1	12458	1244.867393787566	59
1	12465	1246.293679125083	58
1	12467	1246.309784178772	59
1	12482	1247.7199644626	58
1	12483	1247.752174569978	59
1	12491	1248.836335300874	58
1	12494	1249.194564961184	59
1	12506	1250.63695535239	60
1	12533	1253.967349026392	59
1	12545	1254.851391150185	58
1	12548	1255.409739417598	59
1	12561	1256.277676487702	58
1	12568	1256.852129808804	59
1	12577	1258.29452020001	60
1	12595	1259.130247162736	59
1	12608	1260.556532500253	58
1	12609	1260.572637553942	59
1	12620	1261.98281783777	58
1	12621	1262.015027945148	59
1	12632	1263.409103175287	58
1	12633	1263.457418336354	59
1	12640	1264.229376477428	58
1	12645	1264.89980872756	59
1	12660	1266.342199118766	60
1	12663	1266.883623064631	59
1	12671	1268.326013455837	60
1	12717	1273.393100537906	59
1	12730	1274.819385875423	58
1	12731	1274.835490929112	59
1	12749	1276.277881320318	60
1	12752	1276.353721346961	59
1	12764	1277.671956550457	58
1	12766	1277.796111738167	59
1	12782	1279.238502129373	60
1	12786	1279.622417653982	59
1	12795	1281.064808045188	60
1	12813	1284.7534313795	59
1	12815	1284.803383238042	58
1	12832	1285.823819629291	57
1	12834	1286.195821770706	58
1	12843	1287.638212161912	59
1	12846	1287.655953913076	58
1	12853	1289.080602553118	59
1	12856	1289.082239250593	58
1	12875	1290.50852458811	57
1	12876	1290.522992944324	58
1	12889	1291.96538333553	59
1	12901	1293.361095263144	58
1	12902	1293.407773726736	59
1	12915	1294.30686912145	58
1	12921	1294.850164117942	59
1	12934	1296.292554509148	60
1	12949	1297.639951275695	59
1	12955	1299.066236613212	58
1	12957	1299.082341666901	59
1	12975	1300.492521950729	58
1	12976	1300.524732058107	59
1	12994	1301.967122449313	60
1	13038	1306.197663300797	59
1	13046	1307.640053692003	60
1	13067	1310.40850000709	59
1	13074	1311.850890398296	60
1	13103	1314.18851326178	59
1	13105	1314.234114476281	58
1	13116	1315.539513732608	57
1	13117	1315.630903652986	58
1	13127	1317.073294044192	59
1	13144	1318.515684435398	60
1	13149	1319.03423133845	59
1	13156	1320.476621729656	60
1	13161	1320.670527458126	59
1	13169	1321.886802013484	58
1	13170	1322.112917849332	59
1	13182	1323.555308240538	60
1	13222	1327.591943363552	59
1	13232	1329.018228701069	58
1	13233	1329.034333754758	59
1	13241	1330.476724145964	60
1	13247	1330.932554909162	59
1	13249	1331.10222651954	58
1	13256	1332.374945300368	59
1	13273	1333.817335691574	60
1	13277	1334.07015740211	59
1	13282	1334.723370051137	58
1	13285	1335.512547793316	59
1	13290	1336.06356863468	58
1	13296	1336.954938184522	59
1	13311	1338.397328575728	60
1	13316	1339.002226063688	59
1	13325	1340.428511401205	58
1	13327	1340.444616454894	59
1	13342	1341.854796738722	58
1	13343	1341.8870068461	59
1	13359	1343.281082076239	58
1	13360	1343.329397237306	59
1	13370	1344.771787628512	60
1	13405	1348.986223426307	59
1	13414	1350.412508763824	58
1	13416	1350.428613817513	59
1	13425	1351.456609811234	58
1	13430	1351.838794101341	57
1	13431	1351.871004208719	58
1	13446	1353.313394599925	59
1	13456	1354.691364776375	58
1	13457	1354.755784991131	59
1	13471	1356.198175382337	60
1	13521	1360.396506126443	59
1	13531	1361.71863726227	58
1	13535	1361.82279146396	57
1	13536	1361.838896517649	58
1	13543	1363.249076801477	57
1	13544	1363.281286908855	58
1	13552	1364.675362138994	57
1	13554	1364.723677300061	58
1	13566	1366.166067691267	59
1	13573	1366.849650987788	58
1	13585	1367.527932814028	57
1	13586	1367.608458082473	58
1	13596	1369.050848473679	59
1	13606	1370.493238864885	60
1	13628	1373.233074164096	59
1	13636	1374.675464555302	60
1	13651	1376.08564483913	59
1	13661	1377.111678438824	58
1	13667	1377.511930176647	57
1	13668	1377.528035230336	58
1	13671	1378.153537603912	57
1	13676	1378.938215514164	56
1	13678	1378.970425621542	57
1	13693	1380.364500851681	56
1	13694	1380.412816012748	57
1	13701	1381.855206403954	58
1	13710	1383.217071526715	57
1	13711	1383.29759679516	58
1	13729	1384.739987186366	59
1	13738	1386.182377577572	60
1	13745	1387.37370588986	59
1	13749	1387.495927539266	58
1	13755	1388.816096281066	59
1	13771	1390.067101028218	58
1	13773	1390.258486672272	59
1	13783	1391.700877063478	60
1	13802	1393.201068889334	59
1	13819	1394.627354226851	58
1	13822	1394.64345928054	59
1	13832	1396.053639564368	58
1	13833	1396.085849671746	59
1	13841	1397.043768117948	58
1	13844	1397.479924901885	57
1	13845	1397.528240062952	58
1	13863	1398.970630454158	59
1	13869	1399.464999017251	58
1	13882	1400.413020845364	59
1	13893	1401.758780914436	58
1	13894	1401.85541123657	59
1	13900	1402.766747066414	58
1	13906	1403.297801627776	59
1	13915	1403.923304001352	58
1	13923	1404.548806374928	57
1	13926	1404.61135158947	56
1	13927	1404.740192018982	57
1	13934	1406.182582410188	58
1	13947	1407.463922264504	57
1	13948	1407.624972801394	58
1	13955	1407.897760791932	57
1	13964	1408.890207602021	56
1	13965	1409.0673631926	57
1	13968	1410.316492939538	56
1	13969	1410.509753583806	57
1	13977	1411.952143975012	58
1	13993	1413.394534366218	59
1	14000	1413.59673396343	58
1	14008	1414.595348952089	57
1	14011	1414.836924757424	58
1	14027	1416.27931514863	59
1	14034	1416.904817522206	58
1	14037	1417.447919627123	57
1	14039	1417.721705539836	58
1	14056	1419.164095931042	59
1	14067	1420.300490302157	58
1	14068	1420.606486322248	59
1	14076	1422.048876713454	60
1	14089	1423.140244723076	59
1	14095	1423.290801968486	58
1	14103	1424.579346314708	57
1	14104	1424.582635114282	58
1	14113	1426.025025505488	59
1	14125	1427.431916989742	58
1	14126	1427.467415896694	59
1	14139	1428.9098062879	60
1	14155	1431.710773002293	59
1	14172	1433.13705833981	58
1	14173	1433.153163393499	59
1	14180	1433.552829419522	58
1	14188	1434.595553784705	59
1	14200	1436.037944175911	60
1	14216	1438.68384314504	59
1	14218	1438.842199689878	58
1	14226	1440.126233536246	59
1	14242	1441.568623927452	60
1	14248	1441.694770364912	59
1	14258	1443.121055702429	58
1	14259	1443.137160756118	59
1	14263	1443.814856870558	58
1	14269	1444.579551147324	59
1	14275	1446.02194153853	60
1	14302	1448.826197052497	59
1	14306	1448.945870596076	58
1	14315	1450.268587443703	59
1	14330	1451.678767727531	58
1	14331	1451.710977834909	59
1	14339	1453.153368226115	60
1	14346	1453.36002224409	59
1	14352	1454.076884321594	58
1	14358	1454.802412635296	59
1	14371	1456.244803026502	60
1	14379	1457.383909077599	59
1	14387	1458.826299468805	60
1	14421	1461.66276509015	59
1	14429	1463.089050427667	58
1	14430	1463.105155481356	59
1	14443	1464.515335765184	58
1	14445	1464.547545872562	59
1	14464	1465.989936263768	60
1	14489	1468.794191777735	59
1	14494	1469.469925498148	58
1	14507	1470.236582168941	59
1	14511	1470.490736134726	58
1	14522	1471.678972560147	59
1	14535	1473.073047790286	58
1	14536	1473.121362951353	59
1	14558	1474.499333127803	58
1	14559	1474.563753342559	59
1	14583	1475.92561846532	58
1	14584	1476.006143733765	59
1	14590	1477.448534124971	60
1	14598	1478.074036498547	59
1	14613	1479.516426889753	60
1	14620	1479.731952949184	59
1	14625	1481.17434334039	60
1	14659	1484.483330490422	59
1	14661	1484.695883558221	58
1	14665	1484.862966674702	57
1	14670	1485.909615827939	56
1	14672	1485.925720881628	57
1	14682	1487.368111272834	58
1	14693	1488.81050166404	59
1	14711	1490.252892055246	60
1	14758	1494.467327853041	59
1	14764	1495.124994125738	58
1	14771	1495.893613190558	57
1	14773	1495.909718244247	58
1	14784	1497.352108635453	59
1	14796	1498.746183865592	58
1	14797	1498.794499026659	59
1	14808	1500.236889417865	60
1	14878	1507.303895890694	59
1	14891	1508.730181228211	58
1	14892	1508.7462862819	59
1	14903	1510.156466565728	58
1	14904	1510.188676673106	59
1	14911	1510.518035302292	58
1	14916	1511.631067064312	59
1	14931	1513.00495466508	58
1	14934	1513.073457455518	59
1	14941	1513.106178405211	58
1	14953	1514.515847846724	59
1	14960	1515.64904902781	58
1	14965	1515.95823823793	59
1	14979	1517.400628629136	60
1	14992	1520.140463928347	59
1	14999	1520.780062753328	58
1	15005	1521.582854319553	59
1	15019	1523.025244710759	60
1	15024	1524.419319940898	59
1	15037	1525.845605278415	58
1	15038	1525.861710332104	59
1	15042	1525.911076478846	58
1	15056	1527.271890615932	57
1	15057	1527.30410072331	58
1	15070	1528.698175953449	57
1	15072	1528.746491114516	58
1	15079	1530.188881505722	59
1	15088	1531.042090204364	58
1	15097	1531.631271896928	59
1	15116	1533.073662288134	60
1	15135	1535.829602641034	59
1	15161	1537.27199303224	60
1	15171	1538.682173316068	59
1	15179	1540.124563707274	60
1	15205	1541.534743991102	59
1	15218	1542.977134382308	60
1	15283	1551.566145106436	59
1	15289	1552.76824294574	58
1	15294	1553.008535497642	59
1	15303	1554.450925888848	60
1	15326	1556.697158831954	59
1	15336	1558.13954922316	60
1	15361	1561.50273871634	59
1	15370	1562.929024053857	58
1	15372	1562.945129107546	59
1	15392	1564.387519498752	60
1	15440	1570.060450741442	59
1	15453	1571.502841132648	60
1	15459	1572.090200008508	59
1	15468	1572.913021416476	58
1	15469	1573.532590399714	59
1	15484	1574.97498079092	60
1	15539	1581.470733441578	59
1	15546	1582.352227459544	58
1	15549	1582.913123832784	59
1	15565	1584.323304116612	58
1	15567	1584.35551422399	59
1	15575	1585.797904615196	60
1	15620	1590.02844546668	59
1	15626	1591.470835857886	60
1	15640	1592.61425491058	59
1	15645	1592.881016141714	58
1	15652	1594.056645301786	59
1	15665	1595.499035692992	60
1	15679	1597.159872154265	59
1	15686	1597.745268636098	58
1	15689	1598.602262545471	59
1	15699	1600.012442829299	58
1	15700	1600.044652936677	59
1	15707	1601.487043327883	60
1	15721	1602.876282361616	59
1	15730	1604.29129884185	58
1	15731	1604.318672752822	59
1	15741	1605.761063144028	60
1	15747	1606.386565517604	59
1	15762	1607.82895590881	60
1	15783	1609.996440191918	59
1	15795	1611.438830583124	60
1	15821	1613.138309812652	59
1	15830	1614.580700203858	60
1	15853	1617.127866879503	59
1	15863	1618.55415221702	58
1	15865	1618.570257270709	59
1	15880	1620.012647661915	60
1	15907	1622.833008229571	59
1	15912	1623.400337263688	58
1	15916	1624.259293567088	57
1	15917	1624.275398620777	58
1	15922	1625.717789011983	59
1	15938	1627.160179403189	60
1	15952	1628.538149579639	59
1	15961	1629.980539970845	60
1	15977	1631.390720254673	59
1	15979	1631.547353816422	58
1	15983	1632.29481950706	57
1	15987	1632.81700559219	56
1	15988	1632.833110645879	57
1	15995	1633.662364714724	56
1	16000	1634.243290929707	55
1	16001	1634.275501037085	56
1	16009	1635.669576267224	55
1	16011	1635.717891428291	56
1	16015	1636.217456075501	55
1	16021	1637.095861604741	54
1	16023	1637.160281819497	55
1	16031	1638.522146942258	54
1	16032	1638.602672210703	55
1	16036	1638.793378440242	54
1	16044	1640.045062601909	55
1	16053	1641.374717617292	54
1	16055	1641.487452993115	55
1	16061	1642.801002954809	54
1	16062	1642.929843384321	55
1	16068	1643.92439216576	54
1	16070	1644.227288292326	53
1	16072	1644.372233775527	54
1	16083	1645.653573629843	53
1	16085	1645.687554357831	52
1	16087	1645.814624166733	53
1	16097	1647.07985896736	52
1	16101	1647.257014557939	53
1	16112	1648.699404949145	54
1	16119	1649.055405891278	53
1	16130	1650.141795340351	54
1	16138	1651.358714979911	53
1	16139	1651.584185731557	54
1	16144	1652.17646364739	53
1	16149	1653.026576122763	54
1	16164	1654.186419616796	53
1	16167	1654.468966513969	54
1	16177	1655.157652640161	53
1	16185	1655.911356905175	54
1	16192	1657.353747296381	55
1	16204	1658.490141667496	54
1	16206	1658.796137687587	55
1	16221	1659.916427005013	54
1	16225	1660.238528078793	55
1	16240	1661.680918469999	56
1	16245	1662.306420843575	55
1	16253	1663.123308861205	56
1	16265	1664.195283017564	55
1	16268	1664.448447067832	54
1	16269	1664.565699252411	55
1	16275	1665.621568355081	54
1	16276	1666.008089643617	55
1	16282	1667.450480034823	56
1	16292	1668.892870426029	57
1	16298	1669.362800063656	56
1	16314	1670.335260817235	57
1	16322	1671.291886681202	56
1	16327	1671.777651208441	57
1	16333	1672.05810778772	56
1	16341	1673.220041599647	57
1	16357	1674.662431990853	58
1	16372	1676.104822382059	59
1	16379	1677.031851055217	58
1	16385	1677.547212773265	59
1	16396	1678.172715146841	58
1	16406	1678.989603164471	59
1	16413	1679.841488244386	58
1	16418	1680.431993555677	59
1	16430	1681.874383946883	60
1	16459	1685.589563080319	59
1	16472	1687.031953471525	60
1	16502	1689.86841909287	59
1	16518	1691.310809484076	60
1	16535	1693.038045769481	59
1	16546	1694.480436160687	60
1	16552	1695.23452942094	59
1	16554	1695.573560442938	58
1	16560	1696.676919812146	59
1	16577	1698.119310203352	60
1	16580	1698.426131117972	59
1	16587	1699.852416455489	58
1	16588	1699.868521509178	59
1	16597	1700.365543146458	58
1	16610	1701.310911900384	59
1	16623	1702.508144051811	58
1	16626	1702.704987130523	57
1	16627	1702.75330229159	58
1	16634	1704.195692682796	59
1	16651	1705.496556871976	58
1	16654	1705.638083074002	59
1	16670	1707.080473465208	60
1	16683	1709.836413818108	59
1	16692	1710.627570597494	58
1	16697	1711.278804209314	59
1	16711	1712.529808956466	58
1	16717	1712.688984493142	57
1	16718	1712.72119460052	58
1	16728	1714.163584991726	59
1	16740	1715.605975382932	60
1	16744	1715.758584323012	59
1	16758	1717.200974714218	60
1	16772	1718.39412584321	59
1	16782	1719.836516234416	60
1	16793	1720.88959804853	59
1	16800	1722.331988439736	60
1	16839	1726.951837868312	59
1	16856	1728.378123205829	58
1	16857	1728.394228259518	59
1	16869	1729.836618650724	60
1	16883	1731.230693880863	59
1	16901	1732.673084272069	60
1	16924	1735.509549893414	59
1	16930	1736.282639225084	58
1	16934	1736.95194028462	59
1	16940	1738.394330675826	60
1	16954	1739.788405905965	59
1	16963	1741.214691243482	58
1	16965	1741.230796297171	59
1	16971	1741.413652950602	58
1	16974	1742.673186688377	59
1	16989	1744.115577079583	60
1	17021	1748.346117931067	59
1	17031	1749.772403268584	58
1	17032	1749.788508322273	59
1	17038	1751.198688606101	58
1	17039	1751.230898713479	59
1	17056	1752.673289104685	60
1	17088	1755.477544618652	59
1	17097	1756.919935009858	60
1	17126	1759.756400631203	59
1	17134	1761.198791022409	60
1	17144	1762.608971306237	59
1	17161	1764.051361697443	60
1	17165	1764.063782886956	59
1	17179	1765.506173278162	60
1	17185	1767.068721578192	59
1	17207	1768.511111969398	60
1	17210	1768.798832028121	59
1	17221	1769.740397993822	58
1	17222	1770.241222419327	59
1	17233	1771.46632848937	58
1	17237	1771.683612810533	59
1	17241	1772.19973530371	58
1	17252	1773.126003201739	59
1	17257	1773.751505575315	58
1	17263	1774.568393592945	59
1	17281	1776.010783984151	60
1	17289	1776.871824681407	59
1	17301	1778.298110018924	58
1	17302	1778.314215072613	59
1	17319	1779.756605463819	60
1	17341	1782.461762754746	59
1	17356	1783.904153145952	60
1	17391	1787.739028592781	59
1	17403	1789.181418983987	60
1	17438	1792.723790205782	59
1	17449	1794.166180596988	60
1	17457	1795.413534069128	59
1	17468	1796.839819406645	58
1	17470	1796.855924460334	59
1	17473	1797.209126875111	58
1	17479	1797.8548039313	57
1	17482	1798.29831485154	58
1	17496	1799.740705242746	59
1	17507	1801.118675419196	58
1	17509	1801.183095633952	59
1	17520	1802.544960756713	58
1	17522	1802.625486025158	59
1	17530	1802.985817656818	58
1	17537	1803.97124609423	57
1	17538	1804.067876416364	58
1	17548	1805.51026680757	59
1	17563	1806.823816769264	58
1	17564	1806.952657198776	59
1	17577	1807.998237034128	58
1	17587	1808.395047589982	59
1	17603	1809.837437981188	60
1	17619	1811.102672781815	59
1	17626	1812.528958119332	58
1	17627	1812.545063173021	59
1	17640	1813.987453564227	60
1	17662	1816.26384793507	59
1	17675	1817.706238326276	60
1	17685	1818.2340994694	59
1	17688	1818.378858833372	58
1	17694	1819.676489860606	59
1	17705	1821.086670144434	58
1	17706	1821.118880251812	59
1	17725	1822.561270643018	60
1	17758	1825.365526156985	59
1	17763	1826.791811494502	58
1	17764	1826.807916548191	59
1	17770	1828.218096832019	58
1	17771	1828.250306939397	59
1	17776	1828.640886284408	58
1	17779	1829.692697330603	59
1	17800	1831.135087721809	60
1	17842	1835.349523519604	59
1	17853	1836.79191391081	60
1	17864	1838.202094194638	59
1	17881	1839.644484585844	60
1	17889	1841.054664869672	59
1	17901	1842.497055260878	60
1	17912	1843.907235544706	59
1	17918	1844.033927460962	58
1	17922	1845.349625935912	59
1	17936	1846.792016327118	60
1	17955	1849.16494118648	59
1	17966	1849.612376894774	58
1	17967	1850.607331577686	59
1	17974	1850.99290505069	58
1	17976	1851.038662232291	57
1	17979	1852.049721968892	58
1	17989	1853.492112360098	59
1	17998	1853.891232907325	58
1	18007	1854.934502751304	59
1	18017	1856.37689314251	60
1	18025	1856.743803582359	59
1	18040	1858.186193973565	60
1	18062	1861.02265959491	59
1	18078	1862.465049986116	60
1	18086	1863.716054733268	59
1	18096	1864.557982363034	58
1	18100	1865.158445124474	59
1	18114	1866.60083551568	60
1	18117	1866.727800944978	59
1	18128	1868.170191336184	60
1	18138	1869.580371620012	59
1	18141	1869.688996088552	58
1	18153	1871.006656957529	57
1	18155	1871.022762011218	58
1	18167	1872.432942295046	57
1	18168	1872.465152402424	58
1	18182	1873.859227632563	57
1	18183	1873.90754279363	58
1	18205	1875.349933184836	59
1	18218	1876.792323576042	60
1	18265	1882.416939657665	59
1	18269	1883.843224995182	58
1	18270	1883.859330048871	59
1	18280	1885.082037265106	58
1	18284	1885.269510332699	57
1	18286	1885.301720440077	58
1	18296	1886.695795670216	57
1	18298	1886.744110831283	58
1	18306	1888.122081007733	57
1	18310	1888.186501222489	58
1	18320	1889.54836634525	57
1	18321	1889.628891613695	58
1	18330	1890.213050990624	57
1	18335	1890.974651682767	56
1	18336	1891.071282004901	57
1	18350	1892.513672396107	58
1	18358	1893.956062787313	59
1	18368	1895.253507695318	58
1	18372	1895.344064716142	57
1	18373	1895.398453178519	58
1	18386	1896.840843569725	59
1	18396	1898.283233960931	60
1	18422	1900.47507844166	59
1	18432	1900.958649045386	58
1	18436	1901.917468832866	59
1	18444	1903.359859224072	60
1	18450	1903.81121972042	59
1	18459	1905.253610111626	60
1	18468	1905.606092167178	59
1	18476	1907.048482558384	60
1	18494	1909.516361070488	59
1	18508	1910.958751461694	60
1	18539	1913.795217083039	59
1	18555	1915.237607474245	60
1	18558	1915.585355404236	59
1	18562	1915.868119618214	58
1	18569	1916.647787758073	57
1	18570	1917.027745795442	58
1	18575	1918.07407309559	57
1	18576	1918.470136186648	58
1	18587	1919.912526577854	59
1	18592	1920.320404545401	58
1	18599	1920.945906918977	57
1	18603	1920.999133343732	56
1	18604	1921.35491696906	57
1	18618	1922.797307360266	58
1	18629	1923.779214445658	57
1	18630	1924.239697751472	58
1	18640	1925.682088142678	59
1	18646	1926.13014706925	58
1	18650	1926.631785120692	57
1	18651	1927.124478533884	58
1	18666	1928.56686892509	59
1	18686	1930.009259316296	60
1	18710	1932.33692647076	59
1	18725	1933.763211808277	58
1	18726	1933.779316861966	59
1	18734	1934.404819235542	58
1	18739	1935.189497145794	57
1	18741	1935.221707253172	58
1	18753	1936.664097644378	59
1	18767	1938.106488035584	60
1	18790	1940.894638495862	59
1	18796	1941.523188245804	58
1	18801	1942.337028887068	59
1	18821	1943.779419278274	60
1	18827	1945.173494508413	59
1	18833	1946.59977984593	58
1	18834	1946.615884899619	59
1	18838	1946.654201971322	58
1	18846	1948.026065183447	57
1	18847	1948.058275290825	58
1	18855	1949.452350520964	57
1	18857	1949.500665682031	58
1	18864	1950.943056073237	59
1	18870	1951.568558446813	58
1	18883	1952.385446464443	59
1	18896	1953.827836855649	60
1	18913	1955.157491871032	59
1	18927	1956.599882262238	60
1	18967	1960.8626332211	59
1	18978	1962.305023612306	60
1	19000	1963.556028359458	59
1	19016	1964.998418750664	60
1	19021	1965.141489233651	59
1	19026	1966.583879624857	60
1	19036	1967.178256873394	59
1	19046	1967.834884372009	58
1	19052	1967.994059908685	57
1	19055	1968.6206472646	58
1	19059	1970.063037655806	59
1	19063	1970.28276989267	58
1	19070	1970.846630583719	57
1	19075	1971.505428047012	58
1	19094	1972.947818438218	59
1	19104	1973.699201258753	58
1	19107	1974.390208829424	59
1	19117	1975.83259922063	60
1	19158	1980.830627946338	59
1	19169	1982.273018337544	60
1	19176	1982.571298049948	59
1	19180	1983.683198621372	58
1	19182	1984.013688441154	59
1	19196	1985.45607883236	60
1	19213	1986.707083579512	59
1	19219	1987.702311775466	58
1	19221	1987.962054633923	57
1	19223	1988.149473970718	58
1	19239	1989.591864361924	59
1	19244	1990.164414033	58
1	19258	1990.814625308957	57
1	19259	1991.03425475313	58
1	19264	1991.346141662876	57
1	19269	1992.240910646474	56
1	19271	1992.476645144336	57
1	19275	1992.833325500984	56
1	19277	1993.102147517912	55
1	19283	1993.919035535542	56
1	19296	1994.544537909118	55
1	19300	1995.361425926748	56
1	19313	1996.803816317954	57
1	19320	1997.946051996542	56
1	19323	1997.964339226502	55
1	19327	1998.24620670916	56
1	19336	1999.688597100366	57
1	19351	2001.130987491572	58
1	19360	2002.573377882778	59
1	19375	2004.015768273984	60
1	19394	2005.077478684127	59
1	19402	2006.519869075333	60
1	19418	2008.226366677538	59
1	19425	2009.356334696678	58
1	19430	2009.668757068744	59
1	19438	2010.04605817333	58
1	19442	2010.286338227536	57
1	19448	2011.11114745995	58
1	19460	2012.208905371712	57
1	19461	2012.553537851156	58
1	19469	2013.179040224732	57
1	19475	2013.635190709229	56
1	19485	2013.995928242362	57
1	19493	2015.061476046746	56
1	19496	2015.438318633568	57
1	19500	2016.487761384263	56
1	19501	2016.880709024774	57
1	19508	2018.32309941598	58
1	19512	2018.488394128574	57
1	19522	2019.765489807186	58
1	19535	2021.207880198392	59
1	19548	2022.650270589598	60
1	19559	2023.619407854092	59
1	19567	2024.491485651031	58
1	19573	2025.061798245298	59
1	19588	2026.504188636504	60
1	19600	2027.898044084399	59
1	19617	2029.340434475605	60
1	19632	2030.750614759433	59
1	19638	2032.17690009695	58
1	19639	2032.193005150639	59
1	19654	2033.635395541845	60
1	19659	2033.881435305128	59
1	19671	2035.323825696334	60
1	19698	2039.012449030646	59
1	19702	2039.308326784535	58
1	19703	2040.454839421852	59
1	19718	2041.897229813058	60
1	19731	2043.587182797086	59
1	19734	2044.143462756164	58
1	19736	2045.013468134603	57
1	19737	2045.029573188292	58
1	19752	2046.471963579498	59
1	19765	2047.866038809637	58
1	19766	2047.914353970704	59
1	19781	2049.274476481682	58
1	19783	2049.292324147154	57
1	19784	2049.35674436191	58
1	19789	2049.80934645399	57
1	19794	2050.799134753116	58
1	19804	2052.241525144322	59
1	19819	2053.571180159705	58
1	19820	2053.683915535528	59
1	19827	2054.4054902072	58
1	19830	2055.126305926734	59
1	19833	2055.75180830031	58
1	19836	2056.423750834739	57
1	19837	2056.56869631794	58
1	19855	2058.011086709146	59
1	19864	2059.276321509773	58
1	19865	2059.453477100352	59
1	19869	2059.536503932718	58
1	19879	2060.895867491558	59
1	19897	2062.128892184807	58
1	19898	2062.338257882764	59
1	19901	2062.371878780351	58
1	19909	2063.78064827397	59
1	19918	2064.667517658236	58
1	19924	2065.223038665176	59
1	19931	2066.407748197358	58
1	19939	2066.665429056382	59
1	19942	2067.834033534875	58
1	19943	2068.107819447588	59
1	19953	2069.550209838794	60
1	19965	2069.798531383754	59
1	19972	2070.686604209909	58
1	19980	2071.24092177496	59
1	19986	2072.112889547426	58
1	19991	2072.683312166166	59
1	20002	2073.539174884943	58
1	20005	2074.125702557372	59
1	20014	2074.929545109272	58
1	20018	2075.568092948578	59
1	20031	2077.010483339784	60
1	20036	2077.818030897494	59
1	20045	2079.2604212887	60
1	20053	2080.06055883479	59
1	20062	2081.502949225996	60
1	20072	2083.523172247562	59
1	20081	2084.965562638768	60
1	20085	2085.191572560308	59
1	20097	2086.375742922596	58
1	20098	2086.633962951514	59
1	20106	2087.802028260113	58
1	20107	2088.07635334272	59
1	20125	2089.518743733926	60
1	20142	2090.782173627341	59
1	20158	2092.080884272664	58
1	20164	2092.224564018547	59
1	20174	2093.666954409753	60
1	20200	2096.359740285215	59
1	20211	2097.802130676421	60
1	20229	2100.252271909671	59
1	20248	2101.694662300877	60
1	20253	2102.064881635283	59
1	20264	2103.507272026489	60
1	20275	2104.917452310317	59
1	20286	2106.359842701523	60
1	20300	2107.770022985351	59
1	20309	2109.196308322868	58
1	20310	2109.212413376557	59
1	20316	2109.722370192001	58
1	20322	2110.622593660385	57
1	20323	2110.654803767763	58
1	20330	2110.846641187898	57
1	20339	2112.097194158969	58
1	20348	2113.539584550175	59
1	20361	2114.981974941381	60
1	20368	2115.977654913416	59
1	20376	2117.420045304622	60
1	20394	2119.180305685487	59
1	20402	2120.606591023004	58
1	20403	2120.622696076693	59
1	20407	2121.108668638934	58
1	20417	2122.065086467899	59
1	20431	2123.507476859105	60
1	20438	2123.927517615496	59
1	20446	2124.885447035555	58
1	20448	2125.369908006702	59
1	20454	2126.239682364452	58
1	20457	2126.812298397908	59
1	20477	2128.254688789114	60
1	20501	2130.590588385623	59
1	20508	2131.37069608997	58
1	20513	2132.032978776829	59
1	20529	2133.475369168035	60
1	20539	2134.869444398174	59
1	20552	2136.295729735691	58
1	20553	2136.31183478938	59
1	20558	2136.501709815488	58
1	20567	2137.722015073208	57
1	20569	2137.754225180586	58
1	20578	2139.196615571792	59
1	20588	2140.574585748242	58
1	20590	2140.639005962998	59
1	20599	2141.632723541006	58
1	20602	2142.081396354204	59
1	20608	2142.867714180156	58
1	20622	2143.52378674541	59
1	20632	2144.853441760793	58
1	20633	2144.966177136616	59
1	20642	2146.408567527822	60
1	20648	2146.763737266524	59
1	20662	2148.20612765773	60
1	20695	2151.984868448378	59
1	20708	2153.411153785895	58
1	20709	2153.427258839584	59
1	20720	2154.86964923079	60
1	20740	2156.263724460929	59
1	20757	2157.706114852135	60
1	20834	2167.287792168596	59
1	20839	2167.674007161065	58
1	20848	2168.730182559802	59
1	20855	2169.09921129597	58
1	20857	2169.100292498582	57
1	20861	2170.172572951008	58
1	20867	2170.526577836099	57
1	20871	2171.614963342214	58
1	20878	2172.24046571579	57
1	20885	2173.05735373342	58
1	20890	2173.379148511133	57
1	20899	2174.499744124626	58
1	20903	2174.80543384865	57
1	20911	2175.942134515832	58
1	20918	2177.384524907038	59
1	20923	2177.549819619632	58
1	20925	2177.658004523684	57
1	20931	2178.826915298244	58
1	20934	2179.084289861201	57
1	20944	2180.26930568945	58
1	20950	2180.510575198718	57
1	20956	2181.711696080656	58
1	20964	2182.337198454232	57
1	20968	2182.68083334515	56
1	20969	2183.154086471862	57
1	20983	2184.596476863068	58
1	20998	2186.038867254274	59
1	21001	2186.215716548786	58
1	21006	2187.48125764548	59
1	21009	2187.642001886303	58
1	21017	2188.923648036686	59
1	21039	2190.366038427892	60
1	21043	2190.494572561337	59
1	21045	2190.827849897884	58
1	21054	2191.936962952543	59
1	21069	2193.379353343749	60
1	21087	2194.773428573888	59
1	21102	2196.215818965094	60
1	21118	2198.073874521704	59
1	21122	2199.052284586439	58
1	21126	2199.51626491291	59
1	21134	2200.478569923956	58
1	21139	2200.958655304116	59
1	21150	2202.401045695322	60
1	21158	2203.204888247222	59
1	21170	2204.647278638428	60
1	21186	2206.183711274024	59
1	21195	2207.609996611541	58
1	21196	2207.62610166523	59
1	21202	2208.33590197274	58
1	21219	2209.068492056436	59
1	21235	2210.462567286575	58
1	21240	2210.510882447642	59
1	21253	2211.888852624092	58
1	21256	2211.953272838848	59
1	21273	2213.395663230054	60
1	21278	2213.466915698258	59
1	21283	2214.909306089464	60
1	21318	2218.597929423776	59
1	21325	2220.040319814982	60
1	21361	2223.299135324228	59
1	21363	2223.363549579961	58
1	21367	2223.728943149294	57
1	21371	2224.741525715434	58
1	21384	2226.18391610664	59
1	21394	2227.626306497846	60
1	21406	2228.859956874812	59
1	21415	2230.302347266018	60
1	21418	2230.430562011813	59
1	21423	2231.85684734933	58
1	21424	2231.872952403019	59
1	21438	2233.315342794225	60
1	21445	2233.99097060033	59
1	21457	2235.433360991536	60
1	21485	2238.988274036915	59
1	21488	2239.121984325848	58
1	21494	2240.414559374432	57
1	21496	2240.430664428121	58
1	21515	2241.873054819327	59
1	21524	2243.267130049466	58
1	21525	2243.315445210533	59
1	21529	2244.252998051366	58
1	21534	2244.693415386983	57
1	21536	2244.757835601739	58
1	21544	2246.1197007245	57
1	21545	2246.200225992945	58
1	21551	2247.038795285786	57
1	21555	2247.642616384151	58
1	21571	2249.085006775357	59
1	21588	2250.527397166563	60
1	21604	2251.773844426951	59
1	21607	2251.824842074568	58
1	21615	2253.216234818157	59
1	21627	2254.515025502402	58
1	21628	2254.658625209363	59
1	21640	2256.101015600569	60
1	21644	2256.103698087119	59
1	21656	2257.546088478325	60
1	21669	2259.64603922792	59
1	21676	2260.38255409967	58
1	21680	2261.088429619126	59
1	21685	2261.243942709281	58
1	21697	2262.530820010332	59
1	21710	2263.973210401538	60
1	21725	2264.777052953438	59
1	21739	2266.087695449738	58
1	21740	2266.219443344644	59
1	21750	2267.513980787255	58
1	21751	2267.66183373585	59
1	21757	2268.287336109426	58
1	21766	2269.104224127056	59
1	21774	2269.908066678956	58
1	21782	2270.546614518262	59
1	21789	2271.989004909468	60
1	21841	2277.497978149874	59
1	21853	2278.94036854108	60
1	21867	2280.350548824908	59
1	21877	2281.776834162425	58
1	21878	2281.792939216114	59
1	21886	2283.203119499942	58
1	21888	2283.23532960732	59
1	21900	2284.677719998526	60
1	21924	2287.481975512493	59
1	21936	2288.38907613795	58
1	21945	2288.924365903699	59
1	21958	2290.334546187527	58
1	21959	2290.366756294905	59
1	21971	2290.992258668481	58
1	21980	2291.809146686111	59
1	21994	2293.251537077317	60
1	22050	2299.124335838601	59
1	22060	2300.318543550146	58
1	22064	2300.566726229807	59
1	22077	2301.744828887663	58
1	22080	2302.009116621013	59
1	22089	2303.17111422518	58
1	22097	2303.451507012219	59
1	22104	2304.893897403425	60
1	22110	2306.023684900214	59
1	22126	2307.449970237731	58
1	22127	2307.46607529142	59
1	22146	2308.908465682626	60
1	22153	2310.302540912765	59
1	22165	2311.744931303971	60
1	22178	2313.329483262096	59
1	22183	2314.581396925316	58
1	22187	2314.771873653302	59
1	22208	2316.087190208618	58
1	22209	2316.214264044508	59
1	22220	2317.656654435714	60
1	22224	2318.064532403261	59
1	22238	2319.506922794467	60
1	22244	2320.286538275384	59
1	22252	2321.218203934136	58
1	22257	2321.72892866659	59
1	22269	2323.139108950418	58
1	22270	2323.171319057796	59
1	22282	2324.613709449002	60
1	22285	2325.239211822578	59
1	22291	2325.991679625452	58
1	22295	2326.349217659654	57
1	22296	2326.681602213784	58
1	22305	2327.417964962969	57
1	22307	2328.12399260499	58
1	22326	2329.566382996196	59
1	22329	2330.270535638003	58
1	22336	2331.008773387402	59
1	22343	2331.480231385172	58
1	22353	2332.451163778608	59
1	22359	2333.123106313037	58
1	22360	2333.893554169814	59
1	22370	2335.33594456102	60
1	22390	2337.401962325588	59
1	22402	2338.828247663105	58
1	22403	2338.844352716794	59
1	22413	2339.627247937906	58
1	22419	2340.254533000622	57
1	22420	2340.286743108	58
1	22434	2341.729133499206	59
1	22438	2341.742258836208	58
1	22448	2343.107103675656	57
1	22449	2343.171523890412	58
1	22459	2344.613914281618	59
1	22467	2345.95967435069	58
1	22469	2346.056304672824	59
1	22482	2347.385959688207	58
1	22483	2347.49869506403	59
1	22501	2348.941085455236	60
1	22506	2349.566587828812	59
1	22514	2350.238530363241	58
1	22521	2351.008978220018	59
1	22530	2352.451368611224	60
1	22537	2353.091101038275	59
1	22552	2354.533491429481	60
1	22578	2357.135300012762	59
1	22586	2358.577690403968	60
1	22595	2358.796242388343	59
1	22608	2360.238632779549	60
1	22641	2364.501383738411	59
1	22646	2365.415023814911	58
1	22650	2365.943774129617	59
1	22656	2366.569276503193	58
1	22662	2367.386164520823	59
1	22666	2367.397327463798	58
1	22669	2367.91565269927	57
1	22676	2368.828554912029	58
1	22695	2370.157378827293	57
1	22698	2370.206525088479	56
1	22700	2370.270945303235	57
1	22709	2371.632810425996	56
1	22710	2371.713335694441	57
1	22727	2373.155726085647	58
1	22748	2374.598116476853	59
1	22757	2376.040506868059	60
1	22765	2377.337951776064	59
1	22768	2377.659354914834	58
1	22773	2378.764237113581	57
1	22774	2378.78034216727	58
1	22785	2380.190522451098	57
1	22786	2380.222732558476	58
1	22799	2381.665122949682	59
1	22808	2382.290625323258	58
1	22818	2383.043093126132	57
1	22819	2383.107513340888	58
1	22831	2384.549903732094	59
1	22845	2385.9922941233	60
1	22851	2387.321949138683	59
1	22857	2387.92138236587	58
1	22867	2388.7482344762	57
1	22868	2388.764339529889	58
1	22879	2390.174519813717	57
1	22880	2390.206729921095	58
1	22893	2391.649120312301	59
1	22906	2393.052396091388	58
1	22907	2393.091510703507	59
1	22919	2393.717013077083	58
1	22928	2394.533901094713	59
1	22942	2395.976291485919	60
1	22955	2397.305946501302	59
1	22963	2398.183409816906	58
1	22967	2398.732231838819	57
1	22968	2398.748336892508	58
1	22977	2400.158517176336	57
1	22978	2400.190727283714	58
1	22984	2401.584802513853	57
1	22985	2401.63311767492	58
1	22999	2403.075508066126	59
1	23003	2403.295416944231	58
1	23007	2403.314423542424	57
1	23011	2404.437373188887	56
1	23012	2404.517898457332	57
1	23024	2405.863658526404	56
1	23026	2405.960288848538	57
1	23031	2407.289943863921	56
1	23032	2407.402679239744	57
1	23048	2408.445437267942	56
1	23050	2408.716229201438	55
1	23052	2408.84506963095	56
1	23066	2410.142514538955	55
1	23067	2410.287460022156	56
1	23075	2411.729850413362	57
1	23088	2413.172240804568	58
1	23097	2413.57645099346	57
1	23104	2414.421370551506	56
1	23108	2414.614631195774	57
1	23118	2416.05702158698	58
1	23133	2417.499411978186	59
1	23141	2418.700226564057	58
1	23145	2418.707464718978	57
1	23146	2418.941802369392	58
1	23153	2420.126511901574	57
1	23154	2420.384192760598	58
1	23165	2421.552797239091	57
1	23170	2421.826583151804	58
1	23177	2422.235613508891	57
1	23187	2422.979082576608	56
1	23189	2423.26897354301	57
1	23196	2423.838478444496	56
1	23204	2424.711363934216	57
1	23211	2426.153754325422	58
1	23224	2427.56058512026	57
1	23225	2427.596144716628	58
1	23233	2428.684223926676	57
1	23236	2428.969492170014	56
1	23237	2429.038535107834	57
1	23252	2430.48092549904	58
1	23258	2431.106427872616	57
1	23265	2431.923315890246	58
1	23277	2432.963079939227	57
1	23278	2433.365706281452	58
1	23282	2434.100505895532	57
1	23286	2434.389365276744	56
1	23287	2434.808096672658	57
1	23301	2436.250487063864	58
1	23312	2437.69287745507	59
1	23330	2439.135267846276	60
1	23343	2440.094506626812	59
1	23357	2441.520791964329	58
1	23358	2441.536897018018	59
1	23366	2442.979287409224	60
1	23380	2444.362533346568	59
1	23382	2444.373362639363	58
1	23389	2445.79964797688	57
1	23390	2445.804923737774	58
1	23398	2447.24731412898	59
1	23411	2448.689704520186	60
1	23418	2449.493547072086	59
1	23430	2450.935937463292	60
1	23454	2454.624560797604	59
1	23469	2456.06695118881	60
1	23474	2457.209930677016	59
1	23479	2458.652321068222	60
1	23482	2459.277823441798	59
1	23492	2459.755574523122	58
1	23497	2460.06250135205	57
1	23500	2460.720213833004	58
1	23511	2462.16260422421	59
1	23527	2462.915072027084	58
1	23530	2463.604994615416	59
1	23539	2464.341357364601	58
1	23544	2464.851055779376	57
1	23548	2464.88658824864	56
1	23549	2465.047385006622	57
1	23556	2465.767642702118	56
1	23560	2466.489775397828	57
1	23573	2467.932165789034	58
1	23578	2468.620213377152	57
1	23582	2469.37455618024	58
1	23597	2470.816946571446	59
1	23614	2472.259336962652	60
1	23682	2478.604210739771	59
1	23693	2480.030496077288	58
1	23695	2480.046601130977	59
1	23699	2480.279629425194	58
1	23704	2481.488991522183	59
1	23712	2482.931381913389	60
1	23737	2485.735637427356	59
1	23751	2487.178027818562	60
1	23839	2495.719634789975	59
1	23854	2497.162025181181	60
1	23880	2500.803684327266	59
1	23885	2501.424776140043	58
1	23892	2502.246074718472	59
1	23914	2503.688465109678	60
1	23928	2505.703632152594	59
1	23931	2505.934698052784	58
1	23940	2507.08716168158	57
1	23943	2507.1460225438	58
1	23951	2508.588412935006	59
1	23961	2510.030803326212	60
1	23964	2510.656305699788	59
1	23981	2511.408773502662	58
1	23991	2512.098696090994	59
1	24002	2513.5410864822	60
1	24007	2514.261344177696	59
1	24014	2515.703734568902	60
1	24069	2521.327739229338	59
1	24071	2521.392770865281	58
1	24077	2522.770129620544	59
1	24080	2522.819056202798	58
1	24083	2524.21252001175	59
1	24091	2525.654910402956	60
1	24094	2525.671626877832	59
1	24099	2526.406694614521	58
1	24106	2526.458752954856	57
1	24111	2526.96880582191	56
1	24114	2527.114017269038	57
1	24130	2528.524197552866	56
1	24131	2528.556407660244	57
1	24142	2529.99879805145	58
1	24157	2531.3767682279	57
1	24159	2531.441188442656	58
1	24163	2531.589766680374	57
1	24167	2532.066690816232	56
1	24171	2532.883578833862	57
1	24181	2534.325969225068	58
1	24191	2535.655624240451	57
1	24193	2535.768359616274	58
1	24211	2537.21075000748	59
1	24225	2538.653140398686	60
1	24249	2541.85179413141	59
1	24263	2542.787050928036	58
1	24264	2543.294184522616	59
1	24280	2544.213336265553	58
1	24284	2544.736574913822	59
1	24297	2546.178965305028	60
1	24307	2546.85044996224	59
1	24312	2547.065906940587	58
1	24325	2548.292840353446	59
1	24339	2549.735230744652	60
1	24357	2551.344762953138	59
1	24362	2552.113821582446	58
1	24370	2552.787153344344	59
1	24382	2554.197333628172	58
1	24384	2554.22954373555	59
1	24396	2555.671934126756	60
1	24438	2559.90247497824	59
1	24447	2561.328760315757	58
1	24448	2561.344865369446	59
1	24462	2562.787255760652	60
1	24478	2564.181330990791	59
1	24484	2565.623721381997	60
1	24494	2567.033901665825	59
1	24500	2567.506862759	58
1	24510	2568.460187003342	57
1	24514	2568.476292057031	58
1	24527	2569.918682448237	59
1	24543	2571.361072839443	60
1	24556	2572.637876484518	59
1	24570	2574.080266875724	60
1	24575	2574.16532835341	59
1	24579	2575.591613690927	58
1	24581	2575.607718744616	59
1	24588	2577.050109135822	60
1	24618	2579.870469703478	59
1	24626	2581.312860094684	60
1	24642	2582.899903935554	59
1	24649	2584.149325716029	58
1	24651	2584.34229432676	59
1	24666	2585.575611053546	58
1	24670	2585.784684717966	59
1	24680	2586.6137382429	58
1	24682	2587.001896391063	57
1	24683	2587.227075109172	58
1	24689	2587.962333449666	57
1	24693	2588.030917661072	56
1	24696	2588.669465500378	57
1	24710	2590.111855891584	58
1	24718	2591.280752403614	57
1	24720	2591.55424628279	58
1	24735	2592.996636673996	59
1	24739	2593.16193138659	58
1	24743	2594.133323078648	57
1	24744	2594.439027065202	58
1	24752	2595.881417456408	59
1	24768	2597.323807847614	60
1	24818	2602.69103510375	59
1	24834	2604.133425494956	60
1	24855	2606.49538238323	59
1	24859	2606.969891116301	58
1	24861	2607.937772774436	59
1	24866	2608.396176453818	58
[...]
11	25946	2722.58862015732	59
11	25952	2723.430775955984	60
11	25956	2723.77227202787	59
11	25958	2723.858946809833	58
11	25961	2724.614427826534	59
11	25972	2725.456583625198	60
11	25998	2727.795013020886	59
11	26006	2728.63716881955	60
11	26031	2731.314846541107	59
11	26038	2731.94576233426	58
11	26039	2732.157002339771	59
11	26044	2732.674789895762	58
11	26048	2732.999158138435	59
11	26056	2733.841313937099	60
11	26080	2735.417099926344	59
11	26086	2736.259255725008	60
11	26115	2740.841686894313	59
11	26118	2741.683842692977	60
11	26127	2742.201630248968	59
11	26132	2743.043786047632	60
11	26166	2746.071732666816	59
11	26173	2746.91388846548	60
11	26179	2747.55376429283	59
11	26181	2748.03945556476	58
11	26192	2748.395920091494	59
11	26197	2749.238075890158	60
11	26206	2749.532082885139	59
11	26211	2750.374238683803	60
11	26224	2752.251969594449	59
11	26231	2753.094125393113	60
11	26257	2755.378173156706	59
11	26258	2756.22032895537	60
11	26262	2756.46623325343	59
11	26268	2757.308389052094	60
11	26292	2760.028275761404	59
11	26294	2760.870431560068	60
11	26328	2764.63972355982	59
11	26338	2765.481879358484	60
11	26360	2767.899458660006	59
11	26365	2768.74161445867	60
11	26412	2773.339232078626	59
11	26419	2774.18138787729	60
11	26424	2774.699175433281	59
11	26429	2775.541331231945	60
11	26433	2776.059118787936	59
11	26442	2776.9012745866	60
11	26468	2780.138948851901	59
11	26476	2780.981104650565	60
11	26493	2782.383324945336	59
11	26499	2783.225480744	60
11	26515	2785.189216323064	59
11	26524	2786.031372121728	60
11	26531	2786.549159677719	59
11	26537	2787.391315476383	60
11	26572	2792.187959044925	59
11	26580	2793.030114843589	60
11	26597	2794.194308963192	59
11	26604	2795.036464761856	60
11	26672	2803.730925710785	59
11	26679	2804.573081509449	60
11	26714	2808.397922863821	59
11	26720	2809.240078662485	60
11	26731	2809.780289539748	59
11	26737	2810.19400314593	58
11	26740	2810.622445338412	59
11	26748	2811.464601137076	60
11	26773	2814.256942724564	59
11	26779	2815.099098523228	60
11	26797	2817.585570388308	59
11	26802	2818.427726186972	60
11	26808	2818.945513742963	59
11	26817	2819.787669541627	60
11	26836	2821.521845794496	59
11	26842	2822.36400159316	60
11	26852	2823.698920436023	59
11	26868	2824.348774365136	58
11	26870	2824.541076234687	59
11	26874	2824.810195505836	58
11	26876	2825.12520577354	57
11	26885	2825.383232033351	58
11	26889	2826.225387832015	59
11	26901	2827.067543630679	60
11	26919	2828.262626450052	59
11	26924	2829.104782248716	60
11	26932	2829.404061786091	59
11	26940	2829.649983901118	58
11	26944	2830.246217584755	59
11	26950	2831.088373383419	60
11	26961	2832.256632461125	59
11	26971	2833.098788259789	60
11	26977	2833.61657581578	59
11	26985	2834.458731614444	60
11	27005	2836.988852833839	59
11	27010	2837.831008632503	60
11	27037	2839.912011352154	59
11	27040	2840.754167150818	60
11	27046	2840.902704918755	59
11	27053	2841.744860717419	60
11	27066	2843.666915161261	59
11	27071	2843.918034789716	58
11	27073	2844.509070959925	59
11	27085	2845.351226758589	60
11	27150	2852.946328502981	59
11	27159	2853.788484301645	60
11	27198	2859.57344312938	59
11	27203	2860.415598928044	60
11	27229	2863.683412729662	59
11	27235	2864.385817428251	58
11	27237	2864.525568528326	59
11	27250	2865.36772432699	60
11	27271	2867.105704137561	59
11	27272	2867.947859936225	60
11	27287	2869.825590846871	59
11	27292	2870.667746645535	60
11	27337	2875.82910743078	59
11	27347	2876.671263229444	60
11	27383	2880.229627068236	59
11	27395	2880.960121156298	58
11	27396	2881.0717828669	59
11	27398	2881.913938665564	60
11	27440	2886.091134881816	59
11	27447	2886.674964562141	58
11	27448	2886.93329068048	59
11	27463	2887.775446479144	60
11	27470	2888.034907916796	59
11	27472	2888.057331238068	58
11	27478	2888.87706371546	59
11	27485	2889.719219514124	60
11	27519	2893.474681335416	59
11	27522	2894.31683713408	60
11	27544	2895.8850354079	59
11	27549	2896.43947264939	58
11	27552	2896.727191206564	59
11	27560	2897.569347005228	60
11	27608	2903.800469917461	59
11	27615	2904.642625716125	60
11	27638	2906.423470012009	59
11	27641	2907.265625810673	60
11	27677	2911.76254907484	59
11	27682	2912.604704873504	60
11	27696	2914.071929156553	59
11	27697	2914.914084955217	60
11	27713	2916.791815865863	59
11	27717	2917.172822313394	58
11	27718	2917.633971664527	59
11	27732	2918.476127463191	60
11	27753	2919.570612373282	59
11	27760	2920.412768171946	60
11	27765	2920.871645929828	59
11	27774	2921.713801728492	60
11	27810	2925.793631792457	59
11	27816	2926.635787591121	60
11	27846	2929.873461856422	59
11	27852	2930.715617655086	60
11	27862	2931.320143190819	59
11	27866	2932.162298989483	60
11	27900	2935.02355625706	59
11	27905	2935.865712055724	60
11	27937	2938.937408341976	59
11	27939	2939.2280327749	58
11	27942	2939.77956414064	59
11	27944	2940.621719939304	60
11	27947	2940.654318112417	59
11	27956	2941.496473911081	60
11	28053	2953.49088615007	59
11	28063	2954.333041948734	60
11	28066	2954.59281668164	59
11	28074	2955.434972480304	60
11	28077	2956.343456825104	59
11	28088	2957.185612623768	60
11	28092	2957.289879501193	59
11	28111	2958.132035299857	60
11	28115	2958.506668766556	59
11	28120	2959.34882456522	60
11	28125	2960.622312837655	59
11	28130	2960.80349091318	58
11	28141	2961.464468636319	59
11	28154	2962.306624434983	60
11	28195	2966.311949615116	59
11	28197	2966.334372936388	58
11	28202	2967.15410541378	59
11	28212	2967.996261212444	60
11	28224	2968.97698121957	59
11	28234	2969.819137018234	60
11	28238	2970.248225021304	59
11	28249	2971.090380819968	60
11	28252	2971.751723033736	59
11	28255	2972.5938788324	60
11	28288	2976.98900567686	59
11	28300	2977.831161475524	60
11	28306	2978.44938194114	59
11	28313	2979.291537739804	60
11	28344	2983.580395666658	59
11	28354	2984.422551465322	60
11	28370	2985.32396183235	59
11	28379	2986.166117631014	60
11	28412	2989.961040103661	59
11	28418	2990.803195902325	60
11	28465	2997.406936688992	59
11	28473	2998.249092487656	60
11	28487	2999.480643586246	59
11	28493	3000.32279938491	60
11	28497	3000.472118186356	59
11	28503	3001.31427398502	60
11	28507	3001.67094244513	59
11	28514	3002.513098243794	60
11	28551	3005.733581386462	59
11	28559	3006.575737185126	60
11	28585	3009.386745870464	59
11	28591	3010.228901669128	60
11	28607	3011.968584988267	59
11	28613	3012.810740786931	60
11	28648	3017.214450040296	59
11	28656	3018.05660583896	60
11	28689	3021.886240368024	59
11	28694	3022.728396166688	60
11	28700	3023.246183722679	59
11	28711	3024.088339521343	60
11	28720	3024.628505470802	59
11	28726	3025.470661269466	60
11	28793	3032.86985837996	59
11	28799	3033.712014178624	60
11	28849	3040.509161249471	59
11	28857	3041.351317048135	60
11	28897	3045.152560372874	59
11	28900	3045.994716171538	60
11	28918	3047.438343205348	59
11	28927	3048.280499004012	60
11	28958	3051.904574438743	59
11	28961	3052.746730237407	60
11	29001	3058.88537458986	59
11	29007	3059.727530388524	60
11	29047	3064.268698668657	59
11	29054	3065.110854467321	60
11	29066	3066.033696748721	59
11	29068	3066.034743848189	58
11	29077	3066.875852547385	59
11	29095	3067.718008346049	60
11	29098	3068.094527144204	59
11	29102	3068.754630557499	58
11	29103	3068.936682942868	59
11	29111	3069.778838741532	60
11	29127	3070.921455714844	59
11	29132	3071.763611513508	60
11	29147	3074.725139839015	59
11	29164	3075.567295637679	60
11	29185	3078.749159884676	59
11	29191	3079.59131568334	60
11	29206	3081.8565665266	59
11	29215	3082.698722325264	60
11	29221	3083.40584550903	59
11	29229	3084.248001307694	60
11	29239	3084.921477538202	59
11	29246	3085.763633336866	60
11	29259	3086.576864054508	59
11	29264	3087.419019853172	60
11	29330	3095.303090438295	59
11	29335	3096.145246236959	60
11	29355	3098.971990576804	59
11	29364	3099.814146375468	60
11	29403	3104.385755856456	59
11	29412	3105.22791165512	60
11	29434	3107.237677450796	59
11	29438	3107.529702601906	58
11	29447	3108.07983324946	59
11	29454	3108.921989048124	60
11	29467	3110.059976564004	59
11	29471	3110.902132362668	60
11	29489	3113.234843951974	59
11	29499	3114.076999750638	60
11	29502	3114.661129289491	59
11	29509	3115.503285088155	60
11	29535	3117.887680733836	59
11	29539	3118.7298365325	60
11	29542	3118.939985302042	59
11	29551	3119.782141100706	60
11	29564	3121.792555977076	59
11	29573	3122.63471177574	60
11	29599	3125.872386041041	59
11	29602	3126.714541839705	60
11	29619	3128.592272750351	59
11	29628	3129.434428549015	60
11	29631	3129.629236988584	59
11	29641	3130.471392787248	60
11	29665	3132.678805303298	59
11	29670	3133.202838677212	58
11	29673	3133.520961101962	59
11	29678	3134.363116900626	60
11	29717	3138.355463372371	59
11	29723	3139.197619171035	60
11	29728	3139.715406727026	59
11	29733	3140.55756252569	60
11	29758	3142.641821157716	59
11	29767	3143.48397695638	60
11	29787	3144.989202166597	59
11	29795	3145.831357965261	60
11	29808	3146.349145521252	59
11	29810	3146.371568842524	58
11	29811	3147.191301319916	59
11	29823	3148.03345711858	60
11	29839	3150.097019627119	59
11	29849	3150.939175425783	60
11	29866	3153.11234949808	59
11	29874	3153.954505296744	60
11	29893	3157.026201582996	59
11	29896	3157.449689415001	58
11	29902	3157.86835738166	59
11	29906	3157.875165440188	58
11	29912	3158.710513180324	59
11	29920	3159.552668978988	60
11	29949	3162.790343244289	59
11	29951	3163.165876059788	58
11	29958	3163.632499042953	59
11	29965	3164.474654841617	60
11	29973	3164.853905752828	59
11	29986	3165.510229953599	58
11	29987	3165.696061551492	59
11	29997	3166.538217350156	60
11	30013	3168.230116662909	59
11	30015	3168.296889785306	58
11	30023	3169.072272461573	59
11	30032	3169.914428260237	60
11	30051	3171.712542790171	59
11	30059	3172.554698588835	60
11	30094	3177.493984221531	59
11	30102	3178.336140020195	60
11	30156	3184.423166177408	59
11	30168	3185.265321976072	60
11	30220	3193.149392561195	59
11	30236	3193.991548359859	60
11	30260	3197.83470979849	59
11	30263	3197.992222627987	58
11	30270	3198.676865597154	59
11	30282	3199.519021395818	60
11	30297	3201.531850912304	59
11	30305	3202.374006710968	60
11	30352	3206.971624330924	59
11	30362	3207.813780129588	60
11	30365	3207.906278686904	59
11	30370	3208.748434485568	60
11	30431	3215.733982856736	59
11	30438	3216.5761386554	60
11	30446	3217.353673590715	59
11	30449	3218.195829389379	60
11	30452	3218.779958928232	59
11	30461	3219.622114726896	60
11	30470	3220.546357155607	59
11	30474	3221.388512954271	60
11	30516	3224.738040766004	59
11	30520	3225.580196564668	60
11	30542	3227.337670953334	59
11	30550	3228.179826751998	60
11	30593	3232.476314710676	59
11	30597	3233.042812303402	58
11	30600	3233.31847050934	59
11	30602	3234.160626308004	60
11	30614	3235.00006821704	59
11	30615	3235.842224015704	60
11	30636	3237.561708849926	59
11	30639	3238.109279815786	58
11	30640	3238.40386464859	59
11	30654	3239.246020447254	60
11	30699	3244.361425623201	59
11	30706	3245.203581421865	60
11	30709	3245.262095668076	59
11	30721	3246.10425146674	60
11	30740	3248.441255687166	59
11	30743	3249.28341148583	60
11	30746	3249.801199041821	59
11	30764	3250.643354840485	60
11	30772	3251.481632211719	59
11	30775	3252.323788010383	60
11	30791	3254.437092366157	59
11	30806	3255.279248164821	60
11	30809	3255.524123119112	59
11	30811	3255.797035720812	58
11	30815	3256.366278917776	59
11	30820	3257.20843471644	60
11	30835	3258.786355790812	59
11	30840	3259.628511589476	60
11	30878	3263.22263224961	59
11	30883	3263.787131390004	58
11	30885	3263.949582368775	57
11	30886	3264.064788048274	58
11	30900	3264.906943846938	59
11	30910	3265.749099645602	60
11	30929	3266.784674757584	59
11	30937	3267.626830556248	60
11	30945	3268.262844668072	59
11	30948	3269.105000466736	60
11	30966	3271.396122556	59
11	30968	3271.426434259515	58
11	30974	3272.238278354664	59
11	30981	3273.080434153328	60
11	31005	3275.528687644752	59
11	31014	3276.370843443416	60
11	31055	3281.53651377898	59
11	31064	3282.378669577644	60
11	31090	3285.815369791531	59
11	31100	3286.657525590195	60
11	31106	3287.2702438995	59
11	31116	3288.112399698164	60
11	31149	3291.184095984416	59
11	31154	3291.598689399518	58
11	31155	3292.02625178308	59
11	31162	3292.868407581744	60
11	31217	3298.452911880598	59
11	31224	3299.295067679262	60
11	31227	3299.301760270205	59
11	31228	3300.143916068869	60
11	31241	3301.504508504218	59
11	31246	3301.703246648774	58
11	31252	3302.346664302882	59
11	31264	3303.188820101546	60
11	31268	3303.25159130375	59
11	31280	3304.093747102414	60
11	31315	3308.503251226079	59
11	31321	3309.345407024743	60
11	31324	3310.06222052932	59
11	31327	3310.904376327984	60
11	31359	3314.142050593285	59
11	31362	3314.984206391949	60
11	31392	3318.392659278507	59
11	31398	3319.234815077171	60
11	31401	3319.752602633162	59
11	31408	3320.43706439434	58
11	31409	3320.594758431826	59
11	31418	3321.43691423049	60
11	31432	3322.227301550846	59
11	31440	3323.06945734951	60
11	31444	3323.314645141136	59
11	31451	3324.1568009398	60
11	31467	3325.321841234384	59
11	31477	3326.034531850446	58
11	31478	3326.163997033048	59
11	31483	3327.006152831712	60
11	31546	3335.408010972826	59
11	31555	3336.25016677149	60
11	31568	3337.161641942143	59
11	31571	3338.003797740807	60
11	31597	3341.241472006108	59
11	31604	3342.064173088324	58
11	31605	3342.083627804772	59
11	31619	3342.751356452918	58
11	31620	3342.925783603436	59
11	31624	3343.7679394021	60
11	31628	3343.961358715418	59
11	31636	3344.803514514082	60
11	31662	3345.97802517324	59
11	31666	3346.820180971904	60
11	31674	3348.041188779383	59
11	31683	3348.80495374388	58
11	31685	3348.883344578047	59
11	31693	3349.725500376711	60
11	31722	3353.013383903954	59
11	31728	3353.855539702618	60
11	31752	3356.632657913712	59
11	31758	3357.474813712376	60
11	31776	3359.982207342415	59
11	31787	3360.824363141079	60
11	31800	3361.633433512904	59
11	31809	3362.475589311568	60
11	31851	3368.539919367517	59
11	31861	3369.382075166181	60
11	31867	3369.899862722172	59
11	31874	3370.742018520836	60
11	31877	3371.259806076827	59
11	31888	3372.101961875491	60
11	31912	3373.545229662968	59
11	31917	3374.387385461632	60
11	31934	3377.100440552247	59
11	31942	3377.65149653907	58
11	31943	3377.942596350911	59
11	31956	3378.784752149575	60
11	31980	3381.202693937484	59
11	31986	3382.044849736148	60
11	32008	3384.029622508124	59
11	32014	3384.871778306788	60
11	32049	3388.93047998258	59
11	32050	3389.772635781244	60
11	32054	3389.86785744741	59
11	32061	3390.710013246074	60
11	32074	3391.857326677956	59
11	32080	3392.58774415672	58
11	32081	3392.69948247662	59
11	32086	3393.541638275284	60
11	32098	3394.061493708098	59
11	32101	3394.903649506762	60
11	32105	3395.30763086603	59
11	32116	3396.149786664694	60
11	32119	3396.667574220685	59
11	32127	3397.509730019349	60
11	32130	3398.02751757534	59
11	32143	3398.869673374004	60
11	32181	3402.638083502201	59
11	32190	3403.480239300865	60
11	32213	3407.049623480476	59
11	32227	3407.89177927914	60
11	32242	3409.454534884652	59
11	32244	3409.77120058623	58
11	32249	3410.296690683316	59
11	32262	3411.13884648198	60
11	32273	3411.949860962915	59
11	32278	3412.49108729554	58
11	32279	3412.792016761579	59
11	32290	3413.634172560243	60
11	32306	3415.21097400485	59
11	32317	3416.053129803514	60
11	32359	3421.512756840978	59
11	32363	3422.354912639642	60
11	32372	3422.872700195633	59
11	32377	3423.714855994297	60
11	32392	3425.322213358848	59
11	32406	3426.164369157512	60
11	32418	3426.952530259598	59
11	32430	3427.794686058262	60
11	32433	3428.174134953188	59
11	32435	3428.312473614253	58
11	32442	3429.016290751852	59
11	32449	3429.858446550516	60
11	32465	3430.995847527116	59
11	32468	3431.032360323563	58
11	32475	3431.83800332578	59
11	32477	3432.680159124444	60
11	32511	3435.808221825987	59
11	32516	3436.650377624651	60
11	32533	3438.823551696948	59
11	32538	3439.665707495612	60
11	32544	3439.854186243367	59
11	32551	3440.24061723776	58
11	32555	3440.696342042031	59
11	32566	3441.538497840695	60
11	32581	3442.737403781864	59
11	32592	3443.579559580528	60
11	32611	3445.371630963278	59
11	32621	3446.213786761942	60
11	32656	3450.502644688796	59
11	32661	3451.264468943503	58
11	32665	3451.34480048746	59
11	32673	3452.186956286124	60
11	32715	3458.392812121528	59
11	32724	3459.234967920192	60
11	32758	3463.205186420399	59
11	32765	3464.047342219063	60
11	32777	3465.439270546647	59
11	32786	3465.89568586535	58
11	32787	3466.281426345311	59
11	32803	3467.123582143975	60
11	32807	3467.444030520326	59
11	32818	3468.28618631899	60
11	32840	3471.221291890552	59
11	32849	3472.063447689216	60
11	32877	3475.162485120432	59
11	32888	3475.73338021575	58
11	32889	3476.004640919096	59
11	32892	3476.157713316386	58
11	32893	3476.84679671776	59
11	32906	3477.688952516424	60
11	32931	3479.353074620588	59
11	32940	3480.195230419252	60
11	32974	3482.9628481453	59
11	32978	3483.805003943964	60
11	32993	3485.495317043911	59
11	33002	3486.337472842575	60
11	33005	3486.419740767422	59
11	33007	3486.855260398566	58
11	33016	3487.261896566086	59
11	33023	3488.10405236475	60
11	33037	3490.602151014811	59
11	33047	3491.444306813475	60
11	33050	3491.55075449294	59
11	33060	3492.392910291604	60
11	33080	3494.516003099727	59
11	33085	3495.358158898391	60
11	33110	3498.429855184643	59
11	33117	3499.272010983307	60
11	33134	3501.184455756598	59
11	33149	3502.026611555262	60
11	33152	3502.544399111253	59
11	33162	3503.092064056824	58
11	33163	3503.386554909917	59
11	33168	3504.228710708581	60
11	33202	3506.452496033411	59
11	33214	3507.294651832075	60
11	33260	3513.186741310352	59
11	33266	3514.021023794251	58
11	33267	3514.028897109016	59
11	33273	3514.87105290768	60
11	33300	3517.100593395268	59
11	33304	3517.942749193932	60
11	33313	3518.928680130379	59
11	33316	3519.770835929043	60
11	33347	3522.10136899446	59
11	33355	3522.943524793124	60
11	33377	3524.9282975651	59
11	33383	3525.431306494387	58
11	33386	3525.770453363764	59
11	33388	3526.612609162428	60
11	33441	3532.94781236048	59
11	33447	3533.789968159144	60
11	33451	3533.842925249208	59
11	33460	3534.685081047872	60
11	33489	3538.191299163302	59
11	33500	3539.033454961966	60
11	33514	3540.583705904764	59
11	33526	3541.425861703428	60
11	33543	3543.973015882108	59
11	33554	3544.815171680772	60
11	33580	3547.991905473638	59
11	33588	3548.834061272302	60
11	33597	3549.309932288551	59
11	33605	3550.152088087215	60
11	33654	3557.137636458383	59
11	33658	3557.46828327965	58
11	33662	3557.979792257047	59
11	33675	3558.821948055711	60
11	33715	3563.384946650192	59
11	33724	3564.06681841426	58
11	33726	3564.227102448856	59
11	33735	3565.06925824752	60
11	33745	3566.79358128238	59
11	33754	3567.635737081044	60
11	33761	3568.219866619897	59
11	33765	3569.062022418561	60
11	33786	3571.894522584092	59
11	33798	3572.736678382756	60
11	33808	3573.81526389243	59
11	33813	3573.925007969965	58
11	33819	3574.657419691094	59
11	33829	3575.499575489758	60
11	33845	3577.377306400404	59
11	33847	3578.219462199068	60
11	33880	3580.90547413463	59
11	33888	3581.747629933294	60
11	33907	3583.909001552264	59
11	33911	3584.534601052795	58
11	33913	3584.751157350928	59
11	33920	3585.593313149592	60
11	33928	3585.89454440745	59
11	33932	3586.736700206114	60
11	33957	3588.636854438032	59
11	33958	3589.479010236696	60
11	33963	3589.974374471415	59
11	33968	3590.16224450521	58
11	33969	3590.816530270079	59
11	33982	3591.658686068743	60
11	34009	3595.377635093588	59
11	34020	3596.219790892252	60
11	34049	3599.291487178504	59
