version 2
run conf2-1-20161125-01:35:57-3064
attr configname conf2
attr datetime 20161125-01:35:57
attr experiment conf2
attr i 10
attr inifile omnetpp.ini
attr iterationvars "$i=10, $p=2"
attr iterationvars2 "$i=10, $p=2, $repetition=0"
attr measurement "$i=10, $p=2"
attr network Omrezje
attr p 2
attr processid 3064
attr repetition 0
attr replication #0
attr resultdir results
attr runnumber 1
attr seedset 1
param Omrezje.router*.processingTime "truncnormal(${p = 1..2 step 1}, ${p} * 0.5)"
param Omrezje.source*.interArrivalTime "truncnormal(${i = 10..15 step 5}, ${i} * 0.5)"

vector 0  Omrezje.router  droppedPackage:vector  ETV
attr interpolationmode  none
attr title  "drop package, vector"
vector 1  Omrezje.router  queueLength:vector  ETV
attr interpolationmode  none
attr title  "queue length, vector"
vector 2  Omrezje.router1  droppedPackage:vector  ETV
attr interpolationmode  none
attr title  "drop package, vector"
vector 3  Omrezje.router1  queueLength:vector  ETV
attr interpolationmode  none
attr title  "queue length, vector"
vector 4  Omrezje.router2  droppedPackage:vector  ETV
attr interpolationmode  none
attr title  "drop package, vector"
vector 5  Omrezje.router2  queueLength:vector  ETV
attr interpolationmode  none
attr title  "queue length, vector"
vector 6  Omrezje.router3  droppedPackage:vector  ETV
attr interpolationmode  none
attr title  "drop package, vector"
vector 7  Omrezje.router3  queueLength:vector  ETV
attr interpolationmode  none
attr title  "queue length, vector"
vector 8  Omrezje.router4  droppedPackage:vector  ETV
attr interpolationmode  none
attr title  "drop package, vector"
vector 9  Omrezje.router4  queueLength:vector  ETV
attr interpolationmode  none
attr title  "queue length, vector"
vector 10  Omrezje.router5  droppedPackage:vector  ETV
attr interpolationmode  none
attr title  "drop package, vector"
vector 11  Omrezje.router5  queueLength:vector  ETV
attr interpolationmode  none
attr title  "queue length, vector"
0	0	0	0
1	0	0	0
1	175	4.010483204601	59
1	202	7.465614838625	60
1	207	8.031449613803	59
1	225	9.775465777069	58
1	244	11.486581247827	59
1	262	13.230597411093	60
1	285	14.941712881851	59
1	289	15.27977898577	58
1	297	15.538851422475	57
1	341	18.396844515875	58
1	344	18.630944904498	57
1	345	18.734910619794	58
1	349	18.993983056499	59
1	375	20.098222266754	58
1	379	20.366558602626	57
1	383	20.648574678151	58
1	403	21.851976149899	59
1	408	22.086076538522	60
1	411	22.190042253818	59
1	413	22.449114690523	60
1	431	23.553353900778	59
1	435	23.82169023665	60
1	436	24.103706312175	59
1	453	25.307107783923	60
1	461	25.645173887842	59
1	481	27.008485534802	60
1	486	27.467493396191	59
1	487	27.558837946199	60
1	515	29.100305521866	59
1	541	30.922625030215	60
1	568	32.55543715589	59
1	579	33.0339360178	58
1	618	35.112346312877	57
1	629	36.010568789914	58
1	636	36.489067651824	59
1	658	37.841425534903	58
1	668	38.567477946901	59
1	681	39.465700423938	60
1	687	39.944199285848	59
1	697	40.746260155109	58
1	701	40.877328885345	57
1	703	41.296557168927	58
1	716	42.022609580925	59
1	724	42.616554267425	58
1	728	43.399330919872	59
1	743	44.201391789133	60
1	750	44.332460519369	59
1	752	44.665735842102	58
1	754	44.751688802951	59
1	762	45.477741214949	60
1	770	46.071685901449	59
1	782	46.854462553896	60
1	789	47.787592153393	59
1	795	47.941447723378	58
1	799	48.120867476126	59
1	800	48.206820436975	60
1	822	49.526817535473	59
1	836	50.064542399329	58
1	848	51.148226419924	57
1	849	51.242723787417	58
1	850	51.396579357402	59
1	855	51.57599911015	60
1	878	52.981949169497	59
1	887	53.519674033353	60
1	900	54.603358053948	59
1	901	54.697855421441	60
1	903	54.851710991426	59
1	918	56.1554056899	58
1	925	56.437080803521	59
1	942	58.058489687972	60
1	946	58.30684262545	59
1	967	59.610537323924	60
1	971	59.892212437545	59
1	995	61.761974259474	60
1	1010	63.347344071569	59
1	1022	64.203726216552	58
1	1046	66.802475705593	59
1	1050	67.265816878056	58
1	1053	67.652900317547	57
1	1054	67.658857850576	58
1	1074	69.663383522148	57
1	1077	69.694257112375	56
1	1079	69.708039425253	55
1	1083	70.257607339617	56
1	1087	70.72094851208	57
1	1096	71.108031951571	58
1	1099	71.1139894846	59
1	1130	73.118515156172	60
1	1133	73.149388746399	59
1	1134	73.163171059277	60
1	1146	73.712738973641	59
1	1161	74.176080146104	60
1	1164	74.563163585595	59
1	1165	74.569121118624	60
1	1175	75.128998360773	59
1	1189	76.604520380423	60
1	1196	77.167870607665	59
1	1208	77.802291324635	58
1	1216	78.018295219619	59
1	1218	78.584129994797	60
1	1226	79.123274908687	59
1	1234	79.310715783308	58
1	1248	80.623002241689	59
1	1262	81.257422958659	60
1	1265	81.422346854659	59
1	1266	81.473426853643	60
1	1283	82.578406542711	59
1	1288	82.765847417332	60
1	1290	82.788453934556	59
1	1298	83.23310853485	58
1	1309	84.078133875713	59
1	1323	84.877478488683	60
1	1338	85.840962628352	59
1	1340	86.033538176735	60
1	1346	86.24358556858	59
1	1354	86.688240168874	60
1	1361	86.887961693284	59
1	1367	87.530123547759	58
1	1368	87.533265509737	59
1	1387	89.296094262376	60
1	1391	89.698717202604	59
1	1406	90.131901326089	58
1	1408	90.343093327308	59
1	1411	90.985255181783	60
1	1413	90.988397143761	59
1	1415	91.186174136293	58
1	1421	91.554231918939	57
1	1439	92.995738386384	56
1	1440	93.153848836628	57
1	1445	93.196657340894	56
1	1450	93.587032960113	57
1	1452	93.798224961332	58
1	1463	94.443528777785	59
1	1467	94.641305770317	60
1	1470	95.009363552963	59
1	1482	95.63621453479	58
1	1488	96.450870020408	59
1	1492	96.608980470652	60
1	1494	96.615789898786	59
1	1495	96.651788974918	60
1	1501	97.042164594137	59
1	1505	97.253356595356	60
1	1514	97.898660411809	59
1	1530	98.464495186987	60
1	1536	99.091346168814	59
1	1548	99.906001654432	60
1	1550	100.07092153281	59
1	1558	100.497296228161	60
1	1568	101.353792045833	59
1	1582	102.546477802838	60
1	1593	103.526053166834	59
1	1612	104.650913289056	58
1	1615	104.808923679857	59
1	1628	106.661396493657	58
1	1630	106.981184800858	59
1	1641	108.10604492308	60
1	1645	108.264055313881	59
1	1663	110.116528127681	60
1	1665	110.155226497757	59
1	1673	110.436316434882	60
1	1679	110.856520878966	59
1	1686	111.719186947905	60
1	1689	111.809232942913	59
1	1712	113.610358131781	60
1	1722	114.31165251299	59
1	1732	115.264364576937	60
1	1753	117.766784147014	59
1	1760	118.631986656035	58
1	1781	120.734778925864	57
1	1782	121.221915781038	58
1	1792	122.087118290059	59
1	1812	124.189910559888	60
1	1818	124.677047415062	59
1	1820	124.755745335066	58
1	1826	125.542249924083	59
1	1834	126.407452433104	58
1	1839	127.00267598704	59
1	1849	128.132179049086	60
1	1852	128.21087696909	59
1	1860	128.997381558107	60
1	1869	129.862584067128	59
1	1871	130.457807621064	60
1	1880	131.666008603114	59
1	1886	132.79767815347	58
1	1891	133.317715701152	59
1	1911	134.808161358071	58
1	1912	135.121140237138	59
1	1915	136.252809787494	60
1	1926	136.772847335176	59
1	1939	138.263292992095	60
1	1940	138.576271871162	59
1	1959	140.2279789692	60
1	1975	142.031403505186	59
1	1976	142.196119031167	60
1	1980	142.850094176475	59
1	2004	145.48653513921	60
1	2013	146.305225810499	59
1	2049	149.733849764311	58
1	2050	149.760357444523	59
1	2087	153.188981398335	60
1	2089	153.215489078547	59
1	2114	155.238162973012	58
1	2131	156.670620712571	59
1	2133	156.923476608682	58
1	2137	157.389562075294	59
1	2147	158.693294607036	60
1	2162	160.125752346595	59
1	2164	160.378608242706	60
1	2168	160.844693709318	59
1	2189	162.954926222485	58
1	2195	163.580883980619	59
1	2204	164.299825343342	60
1	2233	166.410057856509	59
1	2244	167.036015614643	60
1	2269	169.865189490533	59
1	2275	170.996859040889	58
1	2279	171.177055060074	57
1	2292	173.00734224549	56
1	2296	173.320321124557	57
1	2304	174.451990674913	58
1	2307	174.632186694098	59
1	2323	176.462473879514	60
1	2326	176.775452758581	59
1	2341	177.907122308937	60
1	2345	178.005068492175	59
1	2346	178.087318328122	60
1	2354	179.038791859293	59
1	2362	180.230584392605	60
1	2376	181.460200126199	59
1	2378	182.493923493317	60
1	2397	184.915331760223	59
1	2418	188.370463394247	60
1	2454	193.1121742915	59
1	2468	195.122657496101	58
1	2478	196.567305925524	59
1	2496	198.577789130125	60
1	2500	198.616487500201	59
1	2509	200.022437559548	60
1	2530	202.071619134225	59
1	2535	202.969891207675	60
1	2537	203.164590314505	59
1	2555	205.082771337125	58
1	2557	205.175073519106	57
1	2561	205.526750768249	58
1	2571	206.619721948529	59
1	2585	208.537902971149	60
1	2588	208.63020515313	59
1	2596	208.981882402273	60
1	2606	210.074853582553	59
1	2618	211.937575980863	58
1	2620	212.085336787154	59
1	2632	213.529985216577	60
1	2647	215.227489542111	59
1	2648	215.540468421178	60
1	2652	215.579166791254	59
1	2676	218.6216227596	58
1	2677	218.682621176135	59
1	2679	219.034298425278	60
1	2707	222.137752810159	59
1	2731	225.592884444183	60
1	2760	229.300871974318	59
1	2781	232.160474182075	58
1	2786	232.756003608342	59
1	2804	235.26397331207	58
1	2818	236.211135242366	59
1	2844	239.353287997323	58
1	2846	239.66626687639	59
1	2873	243.121398510414	60
1	2900	245.69932560455	59
1	2921	249.154457238574	60
1	2944	251.416187224929	59
1	2961	254.871318858953	60
1	3016	261.468603247934	59
1	3038	264.923734881958	60
1	3048	265.489569657136	59
1	3064	267.500052861737	58
1	3070	268.94470129116	59
1	3090	271.521019270939	58
1	3095	272.399832925184	59
1	3124	275.541985680141	58
1	3128	275.854964559208	59
1	3137	277.531156368963	58
1	3151	279.310096193232	59
1	3183	282.765227827256	60
1	3197	283.583918498545	59
1	3215	286.315879871975	58
1	3217	287.039050132569	59
1	3223	287.604884907747	58
1	3238	289.615368112348	57
1	3243	290.494181766593	58
1	3254	291.625851316949	57
1	3266	293.63633452155	56
1	3267	293.949313400617	57
1	3290	297.404445034641	58
1	3315	299.667784135353	57
1	3318	299.85473129445	56
1	3326	300.859576668665	57
1	3351	304.314708302689	58
1	3355	305.243165305691	57
1	3372	306.363889877366	56
1	3382	307.769839936713	57
1	3408	311.224971570737	58
1	3434	313.393582716925	57
1	3436	313.74116656756	56
1	3440	314.680103204761	57
1	3461	318.135234838785	58
1	3485	321.590366472809	59
1	3510	325.045498106833	60
1	3519	325.804065795166	59
1	3526	326.9324341394	58
1	3539	329.25919742919	59
1	3547	329.825032204368	58
1	3557	331.835515408969	57
1	3560	332.714329063214	58
1	3582	336.169460697238	59
1	3590	336.345028413967	58
1	3615	339.624592331262	59
1	3618	339.877448227373	58
1	3630	340.471285561875	57
1	3645	343.079723965286	58
1	3654	343.898414636575	57
1	3661	345.128905539963	56
1	3674	345.908897841176	55
1	3678	346.53485559931	56
1	3699	349.989987233334	57
1	3729	353.445118867358	58
1	3732	353.498371589598	57
1	3735	353.95083065958	56
1	3738	354.01013698435	55
1	3757	356.900250501382	56
1	3766	357.971797068782	55
1	3772	359.982280273383	54
1	3779	360.355382135406	55
1	3801	363.81051376943	56
1	3804	364.003246682585	55
1	3824	367.265645403454	56
1	3828	367.446891522243	55
1	3851	369.314826978131	54
1	3857	370.034696296388	53
1	3867	370.720777037478	54
1	3892	374.175908671502	55
1	3920	377.631040305526	56
1	3945	380.087112319393	55
1	3953	381.08617193955	56
1	3958	381.0878398293	55
1	3966	382.097595523994	54
1	3982	383.755403506716	53
1	3989	384.541303573574	54
1	4020	387.996435207598	55
1	4039	390.77328885345	54
1	4043	391.451566841622	55
1	4074	394.626691251775	54
1	4075	394.906698475646	55
1	4085	396.170977956201	54
1	4102	398.36183010967	55
1	4121	401.816961743694	56
1	4139	405.272093377718	57
1	4147	406.324220407588	56
1	4156	408.16554267425	55
1	4163	408.727225011742	56
1	4176	410.776406586419	55
1	4185	412.182356645766	56
1	4191	412.254843593009	55
1	4204	414.26532679761	54
1	4211	415.63748827979	55
1	4235	419.092619913814	56
1	4247	421.141801488491	55
1	4253	421.704394096725	54
1	4263	422.547751547838	55
1	4280	426.002883181862	56
1	4299	429.458014815886	57
1	4326	432.91314644991	58
1	4340	434.37015884362	57
1	4349	435.2432455192	56
1	4355	436.368278083934	57
1	4368	437.426083515864	56
1	4377	439.823409717958	57
1	4388	440.401608457423	56
1	4405	442.412091662024	55
1	4417	443.278541351982	56
1	4445	446.433058071226	55
1	4446	446.733672986006	56
1	4462	448.782096941675	55
1	4476	450.18880462003	56
1	4479	450.454024480428	55
1	4489	451.636698116616	54
1	4496	452.464507685029	53
1	4502	452.977015070002	52
1	4503	453.643936254054	53
1	4531	457.099067888078	54
1	4558	460.554199522102	55
1	4565	460.752480847071	54
1	4585	464.009331156126	55
1	4614	467.46446279015	56
1	4623	468.548373321837	55
1	4629	469.513644364827	54
1	4639	470.919594424174	55
1	4647	472.569339731039	54
1	4656	474.374726058198	55
1	4666	475.859799786625	54
1	4672	476.303412401209	53
1	4681	477.829857692222	54
1	4684	478.600789344842	53
1	4690	479.879039266899	52
1	4699	481.284989326246	53
1	4731	484.74012096027	54
1	4734	485.018340464254	53
1	4742	486.642722163246	52
1	4752	488.195252594294	53
1	4757	488.653205367847	52
1	4765	489.3986512091	51
1	4772	490.663688572448	50
1	4775	491.650384228318	51
1	4784	492.674171777049	50
1	4786	493.699565802995	49
1	4796	495.105515862342	50
1	4803	496.695138186251	49
1	4817	498.560647496366	50
1	4845	502.01577913039	51
1	4881	505.470910764414	52
1	4888	506.114142279744	51
1	4893	506.747554209256	50
1	4912	508.926042398438	51
1	4935	512.381174032462	52
1	4939	512.779003823059	51
1	4960	515.180741286554	50
1	4961	515.836305666486	51
1	4968	516.47635405405	50
1	4987	519.29143730051	51
1	5018	522.746568934534	52
1	5025	522.956207063623	51
1	5044	526.201700568558	52
1	5069	529.656832202582	53
1	5073	530.015205476525	52
1	5098	533.111963836606	53
1	5111	534.89431907367	52
1	5112	536.56709547063	53
1	5126	538.507138617761	52
1	5137	540.022227104654	53
1	5142	540.925768687473	52
1	5158	543.477358738678	53
1	5179	546.169771828685	52
1	5192	546.932490372702	53
1	5219	550.387622006726	54
1	5222	550.978184710478	53
1	5239	553.84275364075	54
1	5259	555.891935215427	53
1	5270	557.009634324281	52
1	5275	557.297885274774	53
1	5288	559.020117528882	52
1	5303	560.753016908798	53
1	5318	561.833535948968	52
1	5333	564.208148542822	53
1	5341	565.051567142685	52
1	5361	567.551162112577	51
1	5363	567.663280176846	52
1	5388	570.63175974395	51
1	5393	571.11841181087	52
1	5408	573.093499961089	51
1	5416	574.573543444894	52
1	5420	575.10398316569	51
1	5438	577.384467503106	50
1	5442	578.028675078918	51
1	5447	579.124949574892	50
1	5463	581.483806712942	51
1	5474	583.145915984094	50
1	5493	584.938938346966	51
1	5499	585.159933280175	50
1	5520	588.39406998099	51
1	5540	591.849201615014	52
1	5569	595.304333249038	53
1	5584	597.219298416301	52
1	5591	598.759464883062	53
1	5610	600.710864834313	52
1	5612	601.240264825503	51
1	5623	602.214596517086	52
1	5633	603.250748030104	51
1	5650	605.66972815111	52
1	5661	607.271714439306	51
1	5680	609.124859785134	52
1	5697	611.248314011375	51
1	5699	611.292680848508	50
1	5703	612.579991419158	51
1	5728	616.035123053182	52
1	5748	617.324130462311	51
1	5762	619.490254687206	52
1	5775	621.345096871513	51
1	5788	622.94538632123	52
1	5794	623.355580076114	51
1	5811	624.78716543385	50
1	5823	626.400517955254	51
1	5847	629.855649589278	52
1	5856	631.397512894518	51
1	5869	633.310781223302	52
1	5887	636.765912857326	53
1	5896	638.326016856325	52
1	5901	639.439445712922	51
1	5911	640.22104449135	52
1	5927	642.173789428011	51
1	5935	643.676176125374	52
1	5951	645.470895326725	51
1	5958	647.131307759398	52
1	5965	647.481378531326	51
1	5981	649.491861735927	50
1	5982	650.586439393422	51
1	5993	651.502344940528	50
1	5996	651.8648682788	49
1	6011	654.041571027446	50
1	6038	657.49670266147	51
1	6054	659.544277758932	50
1	6063	660.951834295494	51
1	6070	661.554760963533	50
1	6078	662.914591050865	49
1	6080	663.565244168134	48
1	6087	664.406965929518	49
1	6097	665.403719701275	48
1	6111	667.586210577336	47
1	6115	667.862097563542	48
1	6150	671.317229197566	49
1	6153	671.607176986538	48
1	6177	674.77236083159	49
1	6181	675.62814339574	48
1	6195	678.227492465614	49
1	6199	678.465522605003	48
1	6205	678.94257112375	47
1	6221	681.682624099638	48
1	6230	683.670076214144	47
1	6241	685.137755733662	48
1	6272	688.592887367686	49
1	6294	691.712009032548	48
1	6297	692.04801900171	49
1	6301	692.481422546225	48
1	6315	694.016454159141	47
1	6320	695.503150635734	48
1	6323	695.73297544175	47
1	6347	698.958282269758	48
1	6354	699.753941850952	47
1	6361	701.007463844435	46
1	6367	701.764425055553	45
1	6370	701.79191993621	44
1	6374	702.413413903782	45
1	6398	705.105826993789	44
1	6402	705.868545537806	45
1	6406	706.0202739687	44
1	6415	707.795874669356	43
1	6425	709.32367717183	44
1	6431	709.806357873957	43
1	6453	712.778808805854	44
1	6474	715.83780748776	43
1	6481	716.233940439878	44
1	6492	717.342851490348	43
1	6494	717.848290692361	42
1	6510	719.559125391175	41
1	6511	719.689072073902	42
1	6537	723.144203707926	43
1	6556	725.118317267417	42
1	6566	726.59933534195	43
1	6591	730.054466975974	44
1	6611	731.921673124568	43
1	6618	732.893783044486	42
1	6624	733.09797681365	41
1	6630	733.509598609998	42
1	6649	736.964730244022	43
1	6655	737.953122738371	42
1	6665	739.657143334029	41
1	6669	740.419861878046	42
1	6689	743.87499351207	43
1	6702	745.924175086747	42
1	6711	746.636828236125	41
1	6712	747.330125146094	42
1	6731	750.785256780118	43
1	6738	752.026505170578	42
1	6752	754.036988375179	41
1	6753	754.240388414142	42
1	6772	757.695520048166	43
1	6779	758.057954784381	42
1	6796	760.1756796586	41
1	6805	761.15065168219	42
1	6835	764.089404398184	41
1	6836	764.605783316214	42
1	6858	768.060914950238	43
1	6885	771.516046584262	44
1	6909	774.141820421189	43
1	6913	774.971178218286	44
1	6947	778.42630985231	45
1	6961	780.173270034992	44
1	6975	781.881441486334	45
1	6979	782.183753239593	44
1	6993	784.194236444194	43
1	7006	785.336573120358	44
1	7013	786.204719648795	43
1	7023	787.25338250355	42
1	7033	788.215202853396	41
1	7036	788.791704754382	42
1	7068	792.246836388406	43
1	7081	794.246652467199	42
1	7092	795.70196802243	43
1	7114	799.157099656454	44
1	7147	802.612231290478	45
1	7172	806.067362924502	46
1	7193	808.320034899406	45
1	7195	809.522494558526	46
1	7211	810.648440815176	45
1	7222	812.97762619255	46
1	7235	814.3310853485	45
1	7237	814.351484513209	44
1	7251	816.36196771781	43
1	7252	816.432757826574	44
1	7259	818.372450922411	43
1	7262	818.423906592245	42
1	7265	819.887889460598	43
1	7286	823.343021094622	44
1	7305	826.798152728646	45
1	7322	828.847334303323	44
1	7328	830.25328436267	45
1	7333	830.435350150017	44
1	7361	833.708415996694	45
1	7366	833.974838146383	44
1	7368	834.456316559219	43
1	7393	837.163547630718	44
1	7420	840.618679264742	45
1	7424	841.40878819345	44
1	7430	841.750303923452	43
1	7432	842.498249377623	42
1	7438	844.073810898766	43
1	7441	844.508732582224	42
1	7451	846.519215786825	41
1	7456	847.52894253279	42
1	7466	848.529698991426	41
1	7486	850.984074166814	42
1	7496	852.550665400628	41
1	7510	854.439205800838	42
1	7519	854.947639615925	41
1	7534	856.57163180983	40
1	7541	857.894337434862	41
1	7544	858.582115014431	40
1	7556	861.349469068886	41
1	7575	864.041882158893	40
1	7589	864.80460070291	41
1	7594	865.076701254659	40
1	7620	868.259732336934	41
1	7625	868.4864910384	40
1	7644	871.714863970958	41
1	7672	875.169995604982	42
1	7691	878.625127239006	43
1	7716	880.627632808797	42
1	7718	880.697430265042	41
1	7726	881.413189015528	40
1	7732	882.025342460875	39
1	7733	882.08025887303	40
1	7738	882.707913469643	39
1	7755	885.535390507054	40
1	7763	886.728879878845	39
1	7774	888.403098585866	38
1	7776	888.739363083446	37
1	7777	888.990522141078	38
1	7796	892.100321181919	37
1	7798	892.445653775102	38
1	7827	895.900785409126	39
1	7864	899.35591704315	40
1	7887	902.811048677174	41
1	7899	903.954030140004	40
1	7918	906.266180311198	41
1	7939	908.844195129456	40
1	7945	909.721311945222	41
1	7975	913.176443579246	42
1	7997	916.63157521327	43
1	8017	918.896611152461	42
1	8030	920.086706847294	43
1	8049	922.6418967283	42
1	8051	922.917577561663	41
1	8057	923.541838481318	42
1	8068	924.928060766264	41
1	8077	926.996970115342	42
1	8084	927.280427471211	41
1	8097	928.949027175466	40
1	8106	930.452101749366	41
1	8129	933.90723338339	42
1	8138	934.980476789269	41
1	8144	935.05589324828	40
1	8160	937.362365017414	41
1	8186	940.817496651438	42
1	8203	942.831359025349	41
1	8205	942.866678226115	40
1	8222	944.272628285462	41
1	8243	947.043376016875	40
1	8249	947.727759919486	41
1	8259	949.71959957325	40
1	8271	951.064342426077	39
1	8272	951.18289155351	40
1	8303	954.638023187534	41
1	8328	958.093154821558	42
1	8362	961.548286455582	43
1	8386	965.003418089606	44
1	8403	967.148208062885	43
1	8412	968.45854972363	44
1	8433	971.169174472087	43
1	8436	971.913681357654	44
1	8449	973.179657676688	43
1	8452	973.933222133625	42
1	8454	973.962862932331	41
1	8469	975.368812991678	42
1	8492	978.823944625702	43
1	8496	979.211107290491	42
1	8522	982.279076259726	43
1	8548	985.73420789375	44
1	8565	989.189339527774	45
1	8569	989.263523313496	44
1	8572	989.484153687763	43
1	8586	990.336153840675	42
1	8588	991.274006518097	41
1	8590	991.622979442932	40
1	8600	992.644471161798	41
1	8623	995.294972927299	40
1	8629	996.099602795822	41
1	8644	997.259619464832	40
1	8658	999.554734429846	41
1	8687	1003.00986606387	42
1	8695	1003.87500526315	41
1	8710	1005.035085241901	40
1	8712	1005.059047638547	39
1	8719	1006.464997697894	40
1	8742	1009.368355359506	39
1	8752	1009.920129331918	40
1	8776	1013.375260965942	41
1	8779	1013.389321768708	40
1	8801	1016.830392599966	41
1	8808	1017.41028817791	40
1	8811	1017.413856685625	39
1	8823	1019.420771382511	38
1	8830	1020.28552423399	39
1	8838	1020.586016796039	38
1	8861	1023.740655868014	39
1	8870	1024.468178552935	38
1	8882	1025.452220996314	37
1	8895	1027.195787502038	38
1	8915	1030.650919136062	39
1	8928	1031.483670610117	38
1	8950	1034.106050770086	39
1	8970	1036.136948350177	38
1	8981	1037.51512022392	37
1	8983	1037.56118240411	38
1	9006	1041.016314038134	39
1	9021	1043.065495612811	38
1	9033	1044.471445672158	39
1	9047	1045.557053042324	38
1	9064	1047.926577306182	39
1	9083	1051.381708940206	40
1	9086	1051.588502656127	39
1	9090	1051.687879904315	38
1	9092	1051.698975068052	37
1	9116	1054.83684057423	38
1	9124	1055.609469065329	37
1	9142	1058.03041095305	36
1	9148	1058.291972208254	37
1	9175	1061.747103842278	38
1	9198	1065.202235476302	39
1	9211	1065.661885088334	38
1	9228	1068.657367110326	39
1	9241	1069.682851497536	38
1	9250	1071.569262375525	37
1	9259	1072.11249874435	38
1	9279	1075.106136131065	37
1	9283	1075.567630378374	38
1	9301	1079.022762012398	39
1	9322	1082.477893646422	40
1	9325	1082.783637707694	39
1	9329	1082.789743012591	38
1	9352	1085.933025280446	39
1	9376	1089.38815691447	40
1	9398	1091.798166748147	39
1	9401	1092.843288548494	40
1	9409	1093.808649952748	39
1	9424	1095.819133157349	38
1	9431	1096.298420182518	39
1	9444	1098.340674566729	38
1	9446	1098.347601757195	37
1	9460	1099.753551816542	38
1	9481	1103.208683450566	39
1	9503	1105.871549180354	38
1	9511	1106.66381508459	39
1	9517	1107.882032384955	38
1	9532	1109.892515589556	37
1	9533	1110.118946718614	38
1	9558	1113.170523795948	37
1	9560	1113.574078352638	38
1	9566	1113.891606120867	37
1	9590	1117.029209986662	38
1	9595	1117.93444840796	37
1	9614	1120.484341620686	38
1	9633	1123.93947325471	39
1	9651	1125.976381226364	38
1	9665	1127.394604888734	39
1	9674	1127.986864430965	38
1	9693	1129.997347635566	37
1	9697	1130.849736522758	38
1	9702	1131.452805429381	37
1	9728	1134.304868156782	38
1	9757	1137.759999790806	39
1	9787	1141.21513142483	40
1	9808	1143.264312999507	39
1	9819	1144.070730067773	38
1	9822	1144.670263058854	39
1	9829	1145.313494574184	38
1	9847	1148.125394692878	39
1	9872	1151.580526326902	40
1	9886	1152.802370910375	39
1	9899	1155.035657960926	40
1	9920	1158.49078959495	41
1	9936	1160.154595704581	40
1	9939	1160.544400783281	39
1	9950	1161.945921228974	40
1	9954	1162.165078909182	39
1	9969	1165.401052862998	40
1	9995	1168.196528522985	39
1	10001	1168.856184497022	40
1	10034	1172.311316131046	41
1	10052	1174.227978136788	40
1	10060	1175.76644776507	41
1	10063	1175.782459524423	40
1	10089	1179.221579399094	41
1	10096	1179.880073755325	40
1	10115	1182.676711033118	41
1	10142	1186.131842667142	42
1	10148	1186.290877364394	41
1	10178	1189.586974301166	42
1	10202	1192.322326978197	41
1	10203	1193.04210593519	42
1	10209	1193.4189251778	41
1	10219	1194.332810182798	40
1	10227	1195.525817393542	39
1	10236	1196.497237569214	40
1	10261	1199.952369203238	41
1	10266	1200.364259796601	40
1	10281	1202.374743001202	39
1	10287	1203.407500837262	40
1	10296	1204.385226205803	39
1	10308	1206.862632471286	40
1	10340	1210.31776410531	41
1	10343	1210.416675819606	40
1	10363	1213.772895739334	41
1	10377	1214.972661222764	40
1	10393	1217.228027373358	41
1	10406	1218.45860863801	40
1	10413	1219.277208948035	39
1	10425	1220.49662802275	38
1	10429	1220.683159007382	39
1	10443	1222.748126999833	38
1	10452	1224.138290641406	39
1	10474	1227.59342227543	40
1	10480	1228.511024661015	39
1	10493	1230.521507865616	38
1	10496	1230.523592776902	37
1	10499	1231.048553909454	38
1	10518	1233.097735484131	37
1	10529	1234.035479445225	36
1	10530	1234.503685543478	37
1	10558	1237.958817177502	38
1	10563	1238.299058553971	37
1	10588	1241.413948811526	38
1	10594	1242.584407093222	37
1	10614	1244.86908044555	38
1	10644	1248.324212079574	39
1	10658	1249.911511193091	38
1	10670	1251.779343713598	39
1	10688	1253.849990108109	38
1	10693	1254.647306320828	37
1	10702	1255.234475347622	38
1	10725	1258.689606981646	39
1	10740	1261.113182290175	38
1	10743	1261.625455885178	37
1	10744	1262.14473861567	38
1	10748	1262.689239139232	37
1	10769	1265.599870249694	38
1	10788	1268.720688753035	37
1	10791	1269.055001883718	38
1	10813	1272.510133517742	39
1	10816	1272.741655162237	38
1	10843	1275.965265151766	39
1	10855	1277.176387439316	38
1	10877	1279.42039678579	39
1	10881	1280.294847136856	38
1	10901	1282.794071185242	37
1	10902	1282.875528419814	38
1	10918	1284.924709994491	37
1	10932	1286.330660053838	38
1	10948	1288.190885135125	37
1	10963	1289.785791687862	38
1	10987	1293.240923321886	39
1	11018	1296.69605495591	40
1	11033	1298.745236530587	39
1	11040	1300.151186589934	40
1	11047	1300.502784770523	39
1	11057	1300.888420026651	38
1	11060	1301.7297365576	37
1	11080	1303.606318223958	38
1	11088	1304.909386435853	37
1	11099	1306.919869640454	36
1	11103	1307.061449857982	37
1	11126	1310.516581492006	38
1	11154	1313.97171312603	39
1	11168	1315.268587980075	38
1	11180	1316.972285663459	37
1	11185	1317.426844760054	38
1	11211	1320.881976394078	39
1	11214	1320.993252072661	38
1	11224	1323.82918210173	37
1	11228	1324.337108028102	38
1	11234	1325.014218481863	37
1	11245	1327.024701686464	36
1	11249	1327.792239662126	37
1	11264	1329.841421236803	36
1	11272	1331.045668095666	35
1	11273	1331.24737129615	36
1	11288	1333.056151300267	35
1	11298	1334.702502930174	36
1	11307	1335.066634504868	35
1	11328	1338.157634564198	36
1	11338	1339.08760091407	35
1	11352	1341.612766198222	36
1	11377	1345.067897832246	37
1	11404	1347.155579432937	36
1	11412	1348.52302946627	37
1	11435	1351.978161100294	38
1	11445	1353.160983346277	37
1	11457	1355.171466550878	36
1	11458	1355.433292734318	37
1	11470	1357.181949755479	36
1	11480	1358.888424368342	37
1	11505	1362.343556002366	38
1	11509	1362.706510987075	37
1	11524	1365.223882573883	36
1	11528	1365.79868763639	37
1	11555	1369.253819270414	38
1	11570	1370.481976764144	37
1	11579	1372.708950904438	38
1	11585	1373.265815392287	37
1	11596	1374.758132479115	36
1	11602	1375.276298596888	35
1	11611	1376.164082538462	36
1	11631	1378.257442541213	35
1	11635	1379.29726500609	34
1	11638	1379.619214172486	35
1	11662	1382.96284509245	34
1	11663	1383.07434580651	35
1	11677	1385.328714619893	34
1	11686	1386.529477440534	35
1	11691	1387.339197824494	34
1	11697	1388.578659015211	33
1	11704	1389.984609074558	34
1	11732	1393.439740708582	35
1	11747	1396.501696514925	34
1	11748	1396.894872342606	35
1	11765	1399.4020970521	34
1	11774	1400.35000397663	35
1	11777	1401.412580256701	34
1	11782	1402.399185551307	33
1	11791	1403.805135610654	34
1	11812	1407.260267244678	35
1	11833	1409.454513075105	34
1	11836	1410.0405479374	33
1	11842	1410.715398878702	34
1	11852	1411.464996279706	33
1	11863	1414.170530512726	34
1	11879	1415.485962688908	33
1	11893	1417.134771426558	32
1	11898	1417.62566214675	33
1	11924	1421.080793780774	34
1	11952	1424.535925414798	35
1	11980	1427.991057048822	36
1	12014	1431.446188682846	37
1	12018	1431.569828325716	36
1	12030	1432.986137364907	35
1	12033	1433.580311530317	34
1	12042	1434.90132031687	35
1	12073	1438.356451950894	36
1	12086	1439.61176114412	35
1	12099	1440.461168757765	34
1	12105	1441.811583584918	35
1	12130	1445.266715218942	36
1	12151	1447.426270766742	35
1	12162	1448.236634534834	34
1	12168	1448.721846852966	35
1	12188	1450.771028427643	34
1	12193	1451.674660371726	33
1	12199	1452.17697848699	34
1	12222	1455.632110121014	35
1	12230	1455.695626780928	34
1	12250	1459.087241755038	35
1	12274	1461.727076394731	34
1	12282	1462.542373389062	35
1	12304	1464.1959536273	34
1	12319	1465.997505023086	35
1	12337	1469.45263665711	36
1	12341	1469.769009213135	35
1	12367	1472.907768291134	36
1	12392	1476.362899925158	37
1	12418	1479.336013418616	36
1	12422	1479.33849764311	35
1	12425	1479.818031559182	36
1	12456	1483.273163193206	37
1	12480	1486.72829482723	38
1	12489	1487.113963420179	37
1	12508	1490.183426461254	38
1	12525	1491.884324463746	37
1	12536	1493.638558095278	38
1	12555	1494.889429197248	37
1	12562	1495.905290872948	36
1	12567	1497.093689729302	37
1	12594	1500.548821363326	38
1	12619	1504.00395299735	39
1	12630	1504.812507894725	38
1	12646	1507.459084631374	39
1	12654	1507.968190100554	38
1	12673	1510.914216265398	39
1	12696	1514.369347899422	40
1	12717	1517.824479533446	41
1	12728	1518.3513593172	40
1	12744	1520.03108932816	39
1	12746	1521.27961116747	40
1	12772	1524.052055737362	39
1	12780	1524.734742801494	40
1	12786	1525.377974316824	39
1	12790	1525.991292305524	38
1	12806	1528.189874435518	39
1	12815	1530.239056010195	38
1	12819	1531.645006069542	39
1	12823	1531.890210739675	38
1	12831	1533.766758082593	37
1	12843	1535.100137703566	38
1	12849	1536.114954964968	37
1	12865	1537.149319278243	36
1	12871	1538.55526933759	37
1	12886	1541.247682427597	36
1	12891	1542.010400971614	37
1	12922	1545.465532605638	38
1	12942	1548.177854192574	37
1	12943	1548.920664239662	38
1	12957	1550.188337397175	37
1	12967	1550.969845814339	36
1	12985	1552.375795873686	37
1	13005	1555.83092750771	38
1	13035	1559.286059141734	39
1	13055	1562.251236624781	38
1	13060	1562.741190775758	39
1	13065	1564.261719829382	38
1	13080	1566.196322409782	39
1	13084	1566.272203033983	38
1	13089	1566.399957686229	37
1	13118	1569.651454043806	38
1	13127	1570.498320835583	37
1	13149	1573.10658567783	38
1	13175	1576.561717311854	39
1	13199	1579.596108052413	38
1	13201	1580.016848945878	39
1	13234	1583.471980579902	40
1	13254	1585.521162154579	39
1	13258	1586.045616429575	38
1	13264	1586.927112213926	39
1	13275	1588.195018522076	38
1	13277	1588.387518284594	37
1	13288	1590.38224384795	38
1	13291	1590.398001489195	37
1	13319	1593.837375481974	38
1	13327	1594.418967898397	37
1	13336	1595.886557056651	36
1	13342	1596.429451102998	35
1	13351	1597.292507115998	36
1	13365	1598.439934307599	35
1	13373	1599.58446785205	34
1	13378	1600.747638750022	35
1	13392	1602.796820324699	34
1	13398	1603.745950076214	33
1	13399	1604.202770384046	34
1	13418	1607.65790201807	35
1	13429	1608.492350330604	34
1	13443	1611.113033652094	35
1	13459	1613.123319274525	34
1	13469	1614.523799944407	33
1	13470	1614.568165286118	34
1	13487	1618.023296920142	35
1	13492	1618.462286776184	34
1	13495	1618.544766353609	33
1	13512	1621.478428554166	34
1	13535	1624.93356018819	35
1	13556	1627.072347407421	34
1	13567	1628.388691822214	35
1	13571	1628.597182376614	34
1	13596	1631.843823456238	35
1	13619	1634.84781318449	34
1	13623	1635.298955090262	35
1	13646	1638.754086724286	36
1	13666	1640.201022119475	35
1	13679	1642.20921835831	36
1	13686	1642.623278961559	35
1	13688	1642.670564808821	34
1	13699	1645.664349992334	35
1	13710	1646.691531218023	34
1	13720	1649.119481626358	35
1	13724	1650.398744738628	34
1	13737	1652.574613260382	35
1	13749	1653.73987354195	34
1	13760	1654.733464036427	33
1	13761	1656.029744894406	34
1	13777	1658.754430445629	33
1	13783	1659.48487652843	34
1	13798	1662.940008162454	35
1	13810	1664.785880059432	34
1	13818	1666.395139796478	35
1	13828	1667.278724964425	34
1	13841	1668.806846468634	33
1	13849	1669.850271430502	34
1	13874	1673.305403064526	35
1	13897	1675.528672567891	34
1	13906	1676.76053469855	35
1	13924	1680.215666332574	36
1	13952	1683.670797966598	37
1	13975	1686.901195310043	36
1	13976	1687.125929600622	37
1	13995	1689.276073623973	36
1	14002	1690.581061234646	37
1	14017	1694.03619286867	38
1	14024	1694.356427809375	37
1	14031	1696.085374443347	36
1	14046	1697.491324502694	37
1	14062	1698.964094537649	36
1	14070	1700.946456136718	37
1	14088	1702.985060946851	36
1	14103	1704.401587770742	37
1	14110	1704.827005178111	36
1	14112	1704.995544151452	35
1	14116	1706.264282617249	34
1	14128	1707.856719404766	35
1	14139	1709.016510560654	34
1	14158	1711.31185103879	35
1	14168	1712.60247095518	34
1	14186	1714.766982672814	35
1	14212	1718.222114306838	36
1	14235	1721.07940978826	35
1	14242	1721.434130654325	34
1	14243	1721.677245940862	35
1	14253	1723.089892992861	34
1	14260	1723.726427515539	33
1	14267	1725.100376197462	32
1	14268	1725.132377574886	33
1	14293	1728.153402509318	32
1	14294	1728.58750920891	33
1	14311	1730.636690783587	32
1	14320	1732.042640842934	33
1	14348	1734.9729820768	32
1	14351	1735.497772476958	33
1	14355	1735.928868286387	32
1	14357	1736.101688605155	31
1	14378	1738.952904110982	32
1	14384	1739.173758629669	31
1	14396	1741.18424183427	30
1	14407	1742.408035745006	31
1	14422	1743.704334063456	30
1	14436	1745.86316737903	31
1	14458	1748.511833499275	30
1	14465	1749.226174652674	29
1	14469	1749.318299013054	30
1	14501	1752.773430647078	31
1	14515	1754.822612221755	30
1	14529	1756.228562281102	31
1	14555	1759.278590675679	30
1	14556	1759.683693915126	31
1	14576	1762.05068492175	30
1	14580	1763.13882554915	31
1	14609	1766.593957183174	32
1	14631	1770.049088817198	33
1	14644	1771.341489903285	32
1	14646	1772.098270391875	31
1	14660	1773.504220451222	32
1	14690	1776.959352085246	33
1	14693	1777.372939517088	32
1	14707	1779.383422721689	31
1	14715	1780.41448371927	32
1	14749	1783.869615353294	33
1	14774	1787.324746987318	34
1	14792	1789.1283877667	33
1	14809	1790.760893423202	32
1	14811	1790.779878621342	33
1	14840	1794.235010255366	34
1	14868	1797.477771563098	33
1	14869	1797.69014188939	34
1	14877	1798.132594502939	33
1	14888	1799.488254767699	32
1	14899	1801.145273523414	33
1	14914	1802.667239189175	32
1	14918	1803.194455098091	31
1	14934	1804.600405157438	32
1	14945	1805.908060280008	31
1	14963	1808.055536791462	32
1	14972	1809.540670790704	31
1	14986	1811.510668425486	32
1	15004	1813.683526057077	31
1	15011	1814.96580005951	32
1	15031	1817.582603609108	31
1	15035	1818.420931693534	32
1	15045	1819.593086813709	31
1	15062	1821.876063327558	32
1	15090	1825.331194961582	33
1	15114	1828.786326595606	34
1	15120	1829.234457611215	33
1	15125	1829.645502836714	32
1	15142	1831.655986041315	31
1	15143	1832.24145822963	32
1	15156	1834.290639804307	31
1	15169	1835.696589863654	32
1	15194	1839.151721497678	33
1	15215	1842.606853131702	34
1	15224	1843.718885268921	33
1	15231	1844.656034706379	32
1	15251	1846.061984765726	33
1	15266	1849.031675401727	32
1	15268	1849.51711639975	33
1	15291	1852.972248033774	34
1	15319	1856.427379667798	35
1	15323	1856.822644879075	34
1	15330	1857.649232958171	33
1	15348	1859.882511301822	34
1	15372	1863.337642935846	35
1	15392	1865.834200519532	34
1	15395	1866.79277456987	35
1	15403	1867.844683724133	34
1	15410	1868.11178649656	33
1	15424	1870.247906203894	34
1	15441	1871.865650133335	33
1	15446	1872.842676002298	32
1	15459	1873.703037837918	33
1	15485	1877.158169471942	34
1	15492	1877.897099747138	33
1	15509	1879.907582951739	32
1	15513	1880.613301105966	33
1	15523	1881.91806615634	32
1	15540	1884.06843273999	33
1	15567	1887.523564374014	34
1	15591	1889.959998974744	33
1	15598	1890.978696008038	34
1	15610	1891.970482179345	33
1	15628	1894.433827642062	34
1	15645	1896.483009216739	33
1	15653	1897.888959276086	34
1	15667	1899.213649604836	33
1	15684	1901.34409091011	34
1	15713	1904.799222544134	35
1	15725	1906.043864611552	34
1	15743	1908.254354178158	35
1	15770	1911.709485812182	36
1	15789	1914.085797429956	35
1	15793	1914.764581158974	34
1	15796	1915.164617446206	35
1	15827	1918.106763839158	34
1	15832	1918.423005134679	33
1	15838	1918.61974908023	34
1	15842	1920.117247043759	33
1	15853	1922.074880714254	34
1	15873	1924.138213452961	33
1	15886	1925.530012348278	34
1	15901	1927.579193922955	33
1	15913	1928.985143982302	34
1	15920	1930.169663066764	33
1	15929	1930.315512713112	32
1	15944	1932.440275616326	33
1	15973	1935.89540725035	34
1	15976	1936.201112680567	33
1	16000	1939.350538884374	34
1	16003	1939.791453227461	33
1	16022	1942.23256229437	32
1	16030	1942.805670518398	33
1	16049	1946.260802152422	34
1	16066	1948.264011908173	33
1	16073	1949.715933786446	34
1	16092	1952.284978317375	33
1	16098	1953.17106542047	34
1	16104	1953.641910044319	33
1	16123	1956.626197054494	34
1	16151	1960.081328688518	35
1	16175	1962.33739434038	34
1	16180	1962.773741778525	33
1	16186	1963.536460322542	34
1	16220	1966.991591956566	35
1	16245	1970.379327158784	34
1	16246	1970.44672359059	35
1	16255	1972.389810363385	34
1	16266	1973.901855224614	35
1	16269	1974.400293567986	34
1	16291	1976.968307375526	33
1	16295	1977.356986858638	34
1	16315	1978.67230768135	33
1	16326	1980.606078864448	32
1	16328	1980.812118492662	33
1	16338	1982.44222638639	32
1	16349	1984.267250126686	33
1	16360	1984.743773152595	32
1	16381	1987.72238176071	33
1	16388	1988.473676000193	32
1	16411	1991.177513394734	33
1	16431	1992.519238929664	32
1	16442	1994.632645028758	33
1	16464	1998.087776662782	34
1	16469	1998.526092023198	33
1	16490	2001.542908296806	34
1	16514	2004.99803993083	35
1	16527	2005.7500105263	34
1	16546	2008.453171564854	35
1	16565	2011.908303198878	36
1	16598	2015.363434832902	37
1	16604	2016.620440864607	36
1	16622	2018.818566466926	37
1	16628	2019.288861948775	36
1	16656	2022.27369810095	37
1	16660	2022.65189047841	36
1	16684	2025.728829734974	37
1	16700	2028.360564285398	36
1	16707	2029.183961368998	37
1	16737	2032.639093003022	38
1	16764	2036.094224637046	39
1	16767	2036.725272910617	38
1	16794	2039.54935627107	39
1	16813	2041.611532850079	38
1	16824	2043.004487905094	39
1	16836	2044.767205729021	38
1	16849	2046.459619539118	39
1	16854	2046.777688933622	38
1	16867	2048.508801113795	37
1	16870	2048.788172138223	36
1	16883	2049.914751173142	37
1	16903	2053.369882807166	38
1	16920	2054.819621752026	37
1	16928	2056.82501444119	38
1	16955	2060.280146075214	39
1	16975	2062.498430923285	38
1	16988	2063.735277709238	39
1	16998	2064.872037775031	38
1	17009	2066.882520979632	37
1	17014	2067.190409343262	38
1	17039	2070.273896700354	37
1	17040	2070.645540977286	38
1	17043	2070.684157549044	37
1	17046	2070.903487388834	36
1	17063	2074.10067261131	37
1	17071	2074.782520698398	36
1	17074	2074.924453798036	35
1	17097	2077.555804245334	36
1	17131	2081.010935879358	37
1	17154	2084.466067513382	38
1	17170	2085.824828254492	37
1	17184	2086.987353025642	36
1	17185	2087.921199147406	37
1	17198	2089.970380722083	36
1	17206	2091.008319434844	35
1	17207	2091.37633078143	36
1	17234	2094.831462415454	37
1	17260	2098.286594049478	38
1	17276	2100.521970483625	37
1	17288	2101.741725683502	38
1	17306	2105.081701867051	37
1	17308	2105.196857317526	38
1	17317	2107.092185071652	37
1	17321	2108.65198895155	38
1	17352	2112.107120585574	39
1	17384	2115.562252219598	40
1	17394	2116.926691362768	39
1	17407	2119.017383853622	40
1	17444	2122.472515487646	41
1	17447	2123.17605070846	40
1	17461	2124.702157139837	39
1	17470	2125.92764712167	40
1	17486	2127.599673328575	39
1	17498	2129.207500322263	38
1	17505	2129.382778755694	39
1	17523	2132.477622916906	38
1	17524	2132.837910389718	39
1	17540	2135.238949936066	38
1	17550	2136.293042023742	39
1	17569	2138.342223598419	38
1	17580	2139.748173657766	39
1	17591	2141.13852475105	38
1	17601	2141.797355232443	37
1	17605	2143.20330529179	38
1	17608	2143.28088275447	37
1	17624	2145.291365959071	36
1	17634	2146.658436925814	37
1	17651	2148.707618500491	36
1	17663	2150.113568559838	37
1	17675	2151.322815572874	36
1	17685	2153.568700193862	37
1	17695	2154.677376173525	36
1	17712	2157.023831827886	37
1	17737	2160.47896346191	38
1	17763	2163.579486025182	37
1	17764	2163.934095095934	38
1	17788	2167.389226729958	39
1	17797	2168.216227596	38
1	17808	2169.832550680745	37
1	17810	2170.844358363982	38
1	17843	2174.299489998006	39
1	17868	2177.459097232687	38
1	17872	2177.75462163203	39
1	17900	2181.209753266054	40
1	17910	2181.755079018475	39
1	17919	2183.49054684649	38
1	17928	2184.664884900078	39
1	17946	2186.905883356389	38
1	17948	2187.511513255692	37
1	17952	2188.120016534102	38
1	17978	2191.575148168126	39
1	17998	2194.681349133458	38
1	18001	2195.03027980215	39
1	18009	2195.29393044095	38
1	18011	2195.553446074096	37
1	18022	2197.563929278697	36
1	18026	2198.485411436174	37
1	18049	2201.940543070198	38
1	18058	2202.456814910527	37
1	18064	2203.5953788925	36
1	18076	2205.395674704222	37
1	18093	2207.616345301702	36
1	18095	2207.963792371599	35
1	18100	2208.850806338246	36
1	18116	2210.232280687596	35
1	18132	2212.30593797227	36
1	18155	2215.658278120106	35
1	18157	2215.761069606294	36
1	18167	2217.668761324707	35
1	18178	2219.216201240318	36
1	18212	2222.671332874342	37
1	18238	2225.783212241734	36
1	18243	2226.126464508366	37
1	18264	2229.58159614239	38
1	18267	2229.731660552313	37
1	18285	2233.036727776414	38
1	18293	2233.558678018803	37
1	18310	2235.910484708375	36
1	18314	2236.491859410438	37
1	18327	2237.773593370717	36
1	18337	2239.784076575318	35
1	18338	2239.946991044462	36
1	18351	2241.334143795872	35
1	18357	2243.402122678486	36
1	18364	2243.80504298452	35
1	18371	2245.815526189121	34
1	18381	2246.85725431251	35
1	18397	2249.44933613085	34
1	18405	2250.312385946534	35
1	18436	2253.767517580558	36
1	18439	2253.857459007525	35
1	18463	2257.222649214582	36
1	18471	2257.878425416727	35
1	18490	2260.677780848606	36
1	18514	2262.988187553325	35
1	18525	2264.13291248263	36
1	18529	2264.28298890019	35
1	18536	2264.660541127079	34
1	18553	2267.588044116654	35
1	18560	2267.8721951496	34
1	18580	2269.941324644333	33
1	18588	2271.043175750678	34
1	18602	2272.436006904148	33
1	18616	2273.962291053535	32
1	18621	2274.498307384702	33
1	18635	2276.5270389758	32
1	18646	2277.953439018726	33
1	18650	2277.983257462737	32
1	18666	2280.211472681217	31
1	18678	2281.40857065275	32
1	18705	2284.863702286774	33
1	18718	2286.025190281141	32
1	18735	2288.318833920798	33
1	18752	2290.065890398275	32
1	18765	2291.773965554822	33
1	18790	2295.229097188846	34
1	18795	2295.762404235355	33
1	18816	2298.68422882287	34
1	18822	2300.098572713348	33
1	18839	2302.139360456894	34
1	18858	2303.60474182075	33
1	18868	2305.594492090918	34
1	18897	2309.049623724942	35
1	18930	2312.504755358966	36
1	18952	2315.95988699299	37
1	18957	2316.182438350156	36
1	18964	2317.143593243225	35
1	18980	2319.088801566562	34
1	18981	2319.415018627014	35
1	18998	2322.870150261038	36
1	19030	2326.325281895062	37
1	19051	2328.374463469739	36
1	19059	2329.780413529086	37
1	19069	2330.6824446657	36
1	19076	2332.266303986964	35
1	19083	2333.23554516311	36
1	19100	2336.690676797134	37
1	19122	2340.145808431158	38
1	19160	2343.600940065182	39
1	19165	2344.221296088175	38
1	19183	2347.056071699206	39
1	19204	2350.190664674838	38
1	19207	2350.51120333323	39
1	19215	2352.371136032974	38
1	19222	2353.966334967254	39
1	19227	2354.381619237575	38
1	19241	2356.015516541931	37
1	19255	2357.421466601278	38
1	19259	2357.76014751065	37
1	19277	2360.413068851378	36
1	19281	2360.876598235302	37
1	19301	2364.331729869326	38
1	19305	2364.43403526058	37
1	19328	2367.78686150335	38
1	19347	2371.241993137374	39
1	19351	2371.298998933125	38
1	19383	2374.486451283585	37
1	19384	2374.697124771398	38
1	19406	2378.152256405422	39
1	19410	2378.507417692787	38
1	19429	2381.607388039446	39
1	19451	2384.734250480024	38
1	19455	2384.8378503556	37
1	19456	2385.06251967347	38
1	19480	2388.517651307494	39
1	19490	2389.067993560183	38
1	19492	2389.419739502616	37
1	19501	2390.570316920393	36
1	19507	2391.972782941518	37
1	19521	2395.427914575542	38
1	19550	2398.376701778075	37
1	19555	2398.883046209566	38
1	19577	2402.33817784359	39
1	19583	2402.633216147999	38
1	19604	2404.618925114321	37
1	19606	2404.6436993526	36
1	19615	2405.793309477614	37
1	19626	2407.842491052291	36
1	19639	2409.248441111638	37
1	19648	2410.675148966403	36
1	19658	2412.39439089139	35
1	19664	2412.703572745662	36
1	19692	2416.158704379686	37
1	19719	2419.61383601371	38
1	19725	2420.169856668459	37
1	19744	2422.809793691715	36
1	19749	2423.068967647734	37
1	19773	2426.524099281758	38
1	19778	2426.908156841069	37
1	19810	2429.979230915782	38
1	19816	2430.779981012413	37
1	19840	2433.434362549806	38
1	19853	2435.000068634997	37
1	19873	2436.88949418383	38
1	19885	2438.821913830817	37
1	19898	2440.344625817854	38
1	19921	2443.496253999666	37
1	19925	2443.799757451878	38
1	19950	2447.254889085902	39
1	19971	2450.710020719926	40
1	19975	2450.884813058423	39
1	19980	2451.271719776735	38
1	19994	2452.895296263024	37
1	19997	2454.16515235395	38
1	20002	2454.905779467625	37
1	20016	2457.620283987974	38
1	20030	2459.047185553804	37
1	20048	2461.075415621998	38
1	20072	2464.530547256022	39
1	20086	2466.07095889045	38
1	20094	2466.968678695231	37
1	20099	2467.985678890046	38
1	20121	2471.44081052407	39
1	20139	2474.895942158094	40
1	20160	2477.021094718236	39
1	20166	2478.351073792118	40
1	20197	2481.806205426142	41
1	20229	2485.141850031479	40
1	20231	2485.261337060166	41
1	20242	2487.073510741241	40
1	20257	2488.71646869419	41
1	20262	2489.083993945842	40
1	20286	2492.171600328214	41
1	20295	2493.104960355044	40
1	20309	2494.220781902891	39
1	20321	2495.626731962238	40
1	20336	2497.675913536915	39
1	20340	2497.924514439149	38
1	20346	2499.081863596262	39
1	20349	2499.136409968847	38
1	20364	2501.131045170939	37
1	20367	2501.146893173448	36
1	20383	2502.536995230286	37
1	20390	2503.157376378049	36
1	20410	2505.99212686431	37
1	20440	2509.447258498334	38
1	20461	2512.902390132358	39
1	20464	2513.209792401054	38
1	20487	2516.357521766382	39
1	20513	2519.812653400406	40
1	20521	2520.22636458035	39
1	20531	2521.250911770356	38
1	20533	2521.251725219458	37
1	20546	2523.262208424059	36
1	20547	2523.26778503443	37
1	20570	2525.27269162866	36
1	20575	2526.722916668454	37
1	20595	2529.026377547425	36
1	20605	2530.178048302478	37
1	20615	2531.304141242463	36
1	20632	2533.314624447064	35
1	20633	2533.633179936502	36
1	20640	2533.765216002825	35
1	20649	2535.325107651665	34
1	20662	2537.088311570526	35
1	20692	2540.54344320455	36
1	20701	2541.82990623521	35
1	20712	2543.367040470069	34
1	20717	2543.998574838574	35
1	20748	2547.453706472598	36
1	20773	2550.908838106622	37
1	20789	2552.352774878632	36
1	20801	2554.363969740646	37
1	20813	2555.429939697675	36
1	20828	2557.440422902276	35
1	20832	2557.81910137467	36
1	20860	2560.842918847775	35
1	20861	2561.274233008694	36
1	20887	2564.729364642718	37
1	20910	2567.90370643277	36
1	20911	2568.184496276742	37
1	20919	2569.503322129882	36
1	20934	2571.639627910766	37
1	20951	2574.38177027025	36
1	20957	2575.09475954479	37
1	20963	2575.378926979831	36
1	20966	2575.534771743685	35
1	20978	2577.545254948286	34
1	20979	2578.549891178814	35
1	20984	2579.555738152887	34
1	20996	2582.005022812838	35
1	21007	2583.576704562089	34
1	21018	2585.460154446862	35
1	21028	2587.509336021539	34
1	21031	2587.597670971291	33
1	21036	2587.920621692725	32
1	21042	2588.915286080886	33
1	21061	2591.230103763977	32
1	21067	2592.37041771491	33
1	21092	2595.825549348934	34
1	21110	2597.874730923611	33
1	21114	2599.005569541046	32
1	21117	2599.280680982958	33
1	21137	2601.4594731152	32
1	21146	2602.735812616982	33
1	21155	2603.681536608099	32
1	21175	2606.190944251006	33
1	21182	2606.781035318115	32
1	21203	2609.64607588503	33
1	21215	2611.723469426503	32
1	21226	2613.101207519054	33
1	21244	2614.998324537675	32
1	21258	2616.556339153078	33
1	21267	2617.321385164521	32
1	21270	2617.754919040306	31
1	21280	2619.765402244907	30
1	21281	2620.011470787102	31
1	21304	2622.331966872253	30
1	21309	2623.466602421126	31
1	21313	2623.786368654109	30
1	21323	2625.79685185871	29
1	21331	2626.92173405515	30
1	21347	2628.53717596015	29
1	21360	2630.376865689174	30
1	21389	2633.831997323198	31
1	21403	2635.881178897875	30
1	21418	2637.287128957222	31
1	21443	2640.742260591246	32
1	21452	2641.880717495518	31
1	21469	2644.19739222527	32
1	21500	2647.652523859294	33
1	21529	2651.107655493318	34
1	21539	2651.933133518523	33
1	21557	2653.943616723124	32
1	21561	2654.562787127342	33
1	21569	2655.954099927725	32
1	21586	2658.017918761366	33
1	21611	2661.47305039539	34
1	21637	2664.426200493603	33
1	21641	2664.928182029414	34
1	21657	2668.016999155331	33
1	21658	2668.383313663438	34
1	21663	2668.984761534667	33
1	21683	2671.838445297462	34
1	21706	2675.293576931486	35
1	21738	2678.095157341029	34
1	21740	2678.74870856551	35
1	21768	2682.203840199534	36
1	21773	2682.69258165005	35
1	21785	2684.100864792139	34
1	21793	2685.658971833558	35
1	21815	2689.114103467582	36
1	21820	2690.132314405942	35
1	21841	2692.142797610543	34
1	21848	2692.569235101606	35
1	21859	2694.153280815144	34
1	21861	2694.618416676283	33
1	21867	2696.02436673563	34
1	21872	2696.163764019745	33
1	21894	2699.479498369654	34
1	21903	2700.086624642943	33
1	21924	2702.934630003678	34
1	21932	2704.205696838149	33
1	21938	2704.983811578355	32
1	21943	2706.21618004275	31
1	21944	2706.389761637702	32
1	21965	2707.862090420012	31
1	21986	2709.770284495	30
1	21987	2709.844893271726	31
1	22005	2712.247629656553	30
1	22014	2713.30002490575	31
1	22022	2714.258112861154	30
1	22036	2716.268596065755	29
1	22043	2716.755156539774	30
1	22065	2720.210288173798	31
1	22103	2723.665419807822	32
1	22113	2724.310528884159	31
1	22128	2727.120551441846	32
1	22155	2730.57568307587	33
1	22181	2734.030814709894	34
1	22184	2734.362944907164	33
1	22202	2736.373428111765	32
1	22209	2736.84798733995	31
1	22210	2737.485946343918	32
1	22238	2740.941077977942	33
1	22265	2744.396209611966	34
1	22268	2744.415360930169	33
1	22283	2746.739419305357	32
1	22294	2747.85134124599	33
1	22312	2750.386838762425	32
1	22328	2751.306472880014	33
1	22335	2752.457293748573	32
1	22353	2754.514885082426	31
1	22357	2754.761604514038	32
1	22360	2755.079744718914	31
1	22376	2756.478260157775	30
1	22379	2758.216736148062	31
1	22403	2761.671867782086	32
1	22425	2763.9256901849	31
1	22433	2764.520192976179	30
1	22434	2765.12699941611	31
1	22458	2768.541159385381	30
1	22459	2768.582131050134	31
1	22487	2772.037262684158	32
1	22507	2774.572608999184	31
1	22509	2775.492394318182	32
1	22533	2777.841282413633	31
1	22543	2778.947525952206	32
1	22555	2780.604058612987	31
1	22573	2782.40265758623	32
1	22591	2784.451839160907	31
1	22594	2784.625025022189	30
1	22600	2785.857789220254	31
1	22625	2789.312920854278	32
1	22647	2792.768052488302	33
1	22655	2793.392213967771	32
1	22679	2796.223184122326	33
1	22698	2798.698407454396	32
1	22704	2799.67831575635	33
1	22707	2800.708890658997	32
1	22723	2803.133447390374	33
1	22750	2806.588579024398	34
1	22780	2810.043710658422	35
1	22788	2810.761306682002	34
1	22819	2813.498842292446	35
1	22825	2814.782273091204	34
1	22843	2816.95397392647	35
1	22869	2820.409105560494	36
1	22884	2822.824205909608	35
1	22899	2823.864237194518	36
1	22908	2824.834689114209	35
1	22921	2826.84517231881	34
1	22924	2827.319368828542	35
1	22951	2830.774500462566	36
1	22965	2831.619947297275	35
1	22974	2832.876621932613	34
1	22982	2834.22963209659	35
1	23008	2836.897588341815	34
1	23011	2837.684763730614	35
1	23027	2838.908071546416	34
1	23041	2840.918554751017	33
1	23042	2841.139895364638	34
1	23070	2844.595026998662	35
1	23081	2845.15879871975	34
1	23096	2847.820474407254	33
1	23099	2848.050158632686	34
1	23128	2851.50529026671	35
1	23154	2854.960421900734	36
1	23157	2854.991937183224	35
1	23162	2855.438823642543	34
1	23166	2855.595940184323	33
1	23188	2858.415553534758	34
1	23194	2858.697650142225	33
1	23196	2859.012903592426	32
1	23215	2861.870685168782	33
1	23220	2863.033870001628	32
1	23235	2865.325816802806	33
1	23265	2868.78094843683	34
1	23269	2869.065319615431	33
1	23283	2871.146871738461	32
1	23287	2872.236080070854	33
1	23291	2872.2365015647	32
1	23314	2875.096769229234	31
1	23323	2875.691211704878	32
1	23351	2879.146343338902	33
1	23359	2879.618227038754	32
1	23379	2882.601474972926	33
1	23411	2885.775352987175	32
1	23414	2886.05660660695	33
1	23421	2886.697803292599	32
1	23425	2887.15966845684	31
1	23438	2889.170151661441	30
1	23443	2889.511738240974	31
1	23461	2891.560919815651	30
1	23469	2892.966869874998	31
1	23480	2894.473269069668	30
1	23493	2896.422001509022	31
1	23502	2897.212084479845	30
1	23522	2899.877133143046	31
1	23551	2903.33226477707	32
1	23564	2905.254017298249	31
1	23575	2906.787396411094	32
1	23592	2908.836577985771	31
1	23604	2910.242528045118	32
1	23618	2911.285466912052	31
1	23630	2912.853055832125	30
1	23641	2913.697659679142	31
1	23667	2917.152791313166	32
1	23694	2920.60792294719	33
1	23716	2924.063054581214	34
1	23727	2925.575132177944	33
1	23733	2926.3919072546	32
1	23740	2927.518186215238	33
1	23761	2930.973317849262	34
1	23769	2931.390298958062	33
1	23797	2934.428449483286	34
1	23822	2937.88358111731	35
1	23832	2939.432231776466	34
1	23851	2941.126063732082	33
1	23852	2941.338712751334	34
1	23855	2941.442714981067	33
1	23868	2944.793844385358	34
1	23876	2945.463681390269	33
1	23887	2948.248976019382	34
1	23891	2948.901529509151	33
1	23903	2950.298157594059	32
1	23907	2951.704107653406	33
1	23918	2953.46961009955	32
1	23920	2953.505614208673	31
1	23925	2955.15923928743	32
1	23956	2958.614370921454	33
1	23976	2962.069502555478	34
1	23995	2964.452461063289	33
1	24007	2965.524634189502	34
1	24037	2968.979765823526	35
1	24043	2969.589479845481	34
1	24073	2972.43489745755	35
1	24096	2975.620929459284	34
1	24098	2975.890029091574	35
1	24122	2979.345160725598	36
1	24132	2980.003392617427	35
1	24158	2982.800292359622	36
1	24163	2983.662862277688	35
1	24184	2986.255423993646	36
1	24187	2986.563294145144	35
1	24206	2987.778858394496	34
1	24215	2989.71055562767	35
1	24231	2991.704795096092	34
1	24242	2993.165687261694	35
1	24252	2994.086164366975	34
1	24271	2995.725761505294	33
1	24279	2996.620818895718	34
1	24303	3000.075950529742	35
1	24326	3003.531082163766	36
1	24351	3006.98621379779	37
1	24362	3007.7886607329	36
1	24379	3010.441345431814	37
1	24389	3011.105255725703	36
1	24412	3013.896477065838	37
1	24432	3017.351608699862	38
1	24438	3017.841076755905	37
1	24445	3018.880721502772	36
1	24450	3019.400790274539	35
1	24458	3020.806740333886	36
1	24464	3021.163867211925	35
1	24471	3021.862043165107	34
1	24482	3024.26187196791	35
1	24503	3027.717003601934	36
1	24517	3029.903975983511	35
1	24526	3031.172135235958	36
1	24529	3031.914459188112	35
1	24539	3033.221316810635	34
1	24549	3034.627266869982	35
1	24554	3034.7027186344	34
1	24582	3037.945908801915	33
1	24584	3038.082398504006	34
1	24608	3041.53753013803	35
1	24640	3043.977358415718	34
1	24644	3044.992661772054	35
1	24663	3048.241570056875	34
1	24664	3048.447793406078	35
1	24678	3049.982584611048	34
1	24688	3051.902925040102	35
1	24707	3055.358056674126	36
1	24729	3058.81318830815	37
1	24740	3060.061224052526	36
1	24746	3061.78042147935	35
1	24755	3062.268319942174	36
1	24773	3065.533516165186	35
1	24774	3065.723451576198	36
1	24798	3069.178583210222	37
1	24826	3072.633714844246	38
1	24837	3074.134606484733	37
1	24851	3076.08884647827	38
1	24875	3079.543978112294	39
1	24888	3081.084447719324	38
1	24894	3082.999109746318	39
1	24903	3084.187022507738	38
1	24908	3086.197505712339	37
1	24916	3086.454241380342	38
1	24928	3088.20798891694	37
1	24930	3088.318119532458	36
1	24936	3088.8581243243	35
1	24945	3089.909373014366	36
1	24949	3090.218472121541	35
1	24966	3092.416482681812	34
1	24970	3093.36450464839	35
1	24973	3094.239438530743	34
1	24997	3096.819636282414	35
1	25010	3098.260404939945	34
1	25012	3098.564027405843	33
1	25026	3100.274767916438	34
1	25053	3102.396975746775	33
1	25058	3103.729899550462	34
1	25067	3104.410845050531	33
1	25088	3107.185031184486	34
1	25095	3108.31282096295	33
1	25108	3110.64016281851	34
1	25127	3112.333787372152	33
1	25132	3114.095294452534	34
1	25152	3115.93582716925	33
1	25157	3116.354753781354	32
1	25172	3117.550426086558	33
1	25192	3119.961776604669	32
1	25196	3120.375720190556	31
1	25200	3121.005557720582	32
1	25203	3121.127397270881	31
1	25228	3124.460689354606	32
1	25250	3127.737242381738	31
1	25251	3127.91582098863	32
1	25266	3129.474678591725	31
1	25281	3131.370952622654	32
1	25295	3132.438619418162	31
1	25309	3134.826084256678	32
1	25331	3138.281215890702	33
1	25334	3138.470069031965	32
1	25353	3140.480552236566	31
1	25354	3141.736347524726	32
1	25362	3141.923900103815	31
1	25367	3142.491035441167	30
1	25370	3143.0135300142	29
1	25382	3143.973081678492	28
1	25391	3145.19147915875	29
1	25422	3148.52248505497	28
1	25426	3148.646610792774	29
1	25432	3149.091891708966	28
1	25445	3151.063639712945	27
1	25457	3152.101742426798	28
1	25477	3155.556874060822	29
1	25489	3156.552381436675	28
1	25498	3157.619762503737	27
1	25507	3159.012005694846	28
1	25523	3160.585384282576	27
1	25533	3162.46713732887	28
1	25536	3162.595867487177	27
1	25551	3164.516318903547	26
1	25557	3165.922268962894	27
1	25564	3166.614571267083	26
1	25566	3166.616833896379	25
1	25582	3169.377400596918	26
1	25586	3170.09123285915	25
1	25606	3172.832532230942	26
1	25622	3174.390037044152	25
1	25637	3176.287663864966	26
1	25641	3176.669249919384	25
1	25668	3179.74279549899	26
1	25698	3183.197927133014	27
1	25720	3186.653058767038	28
1	25755	3190.108190401062	29
1	25780	3193.563322035086	30
1	25806	3196.774081965394	29
1	25807	3197.01845366911	30
1	25812	3197.1689357041	29
1	25818	3197.716434375359	28
1	25823	3198.784565169995	27
1	25832	3200.473585303134	28
1	25836	3200.795048374596	27
1	25855	3203.928716937158	28
1	25867	3204.816014783798	27
1	25870	3205.491900152428	26
1	25881	3207.383848571182	27
1	25910	3210.707787126575	26
1	25914	3210.838980205206	27
1	25928	3211.85245111587	26
1	25945	3214.29411183923	27
1	25959	3216.343293413907	26
1	25971	3217.749243473254	27
1	25989	3218.889397216005	26
1	26006	3221.042831706566	25
1	26007	3221.204375107278	26
1	26030	3224.659506741302	27
1	26034	3224.920846829808	26
1	26036	3225.059106929601	25
1	26053	3228.114638375326	26
1	26060	3228.818297483635	25
1	26062	3228.94181323901	24
1	26080	3231.56977000935	25
1	26092	3233.618951584027	24
1	26106	3235.024901643374	25
1	26128	3237.785489971525	24
1	26135	3238.480033277398	25
1	26144	3238.994229262015	24
1	26148	3240.252549973728	23
1	26158	3241.935164911422	24
1	26177	3244.369229037773	23
1	26181	3245.390296545446	24
1	26204	3248.84542817947	25
1	26213	3249.04664528502	24
1	26230	3251.324341394	23
1	26240	3252.144694814842	22
1	26241	3252.300559813494	23
1	26260	3255.755691447518	24
1	26267	3257.088578103424	23
1	26283	3259.210823081542	24
1	26297	3261.109544512626	23
1	26306	3262.665954715566	24
1	26328	3266.12108634959	25
1	26339	3267.140994126429	24
1	26342	3267.69562636898	23
1	26359	3269.576217983614	24
1	26377	3273.031349617638	25
1	26393	3275.080531192315	24
1	26406	3276.486481251662	25
1	26423	3278.40204423895	24
1	26430	3279.203893354035	23
1	26434	3279.941612885686	24
1	26447	3281.214376558636	23
1	26462	3283.39674451971	24
1	26485	3286.851876153734	25
1	26499	3289.25630937704	24
1	26501	3290.307007787758	25
1	26530	3293.277275786242	24
1	26534	3293.762139421782	25
1	26547	3295.811320996459	24
1	26554	3297.217271055806	25
1	26586	3300.67240268983	26
1	26601	3303.329691809247	25
1	26607	3304.127534323854	26
1	26617	3305.4797470839	25
1	26638	3307.582665957878	26
1	26659	3311.037797591902	27
1	26686	3314.348421031394	26
1	26687	3314.492929225926	27
1	26711	3317.94806085995	28
1	26721	3319.018598506375	27
1	26723	3319.413557446055	26
1	26737	3321.403192493974	27
1	26756	3323.434523855257	26
1	26766	3324.858324127998	27
1	26790	3328.313455762022	28
1	26818	3331.41320823849	27
1	26822	3331.768587396046	28
1	26834	3333.486939878262	27
1	26840	3335.22371903007	28
1	26846	3335.497423082863	27
1	26876	3338.678850664094	28
1	26901	3342.133982298118	29
1	26913	3343.539355901267	28
1	26923	3345.549839105868	27
1	26927	3345.589113932142	28
1	26939	3346.606651282617	27
1	26950	3349.044245566166	28
1	26970	3352.49937720019	29
1	26983	3353.225749916739	28
1	27002	3355.954508834214	29
1	27018	3359.409640468238	30
1	27025	3359.623221538075	29
1	27028	3359.6351527738	28
1	27048	3361.633704742676	27
1	27059	3362.864772102262	28
1	27083	3366.319903736286	29
1	27101	3369.67563756108	28
1	27102	3369.77503537031	29
1	27115	3371.824216944987	28
1	27122	3373.174004196275	27
1	27123	3373.230167004334	28
1	27131	3373.696603970282	27
1	27140	3375.707087174883	26
1	27146	3376.552147247946	25
1	27147	3376.685298638358	26
1	27152	3376.993537370871	25
1	27171	3379.728053584085	24
1	27174	3380.140430272382	25
1	27187	3381.738536788686	24
1	27195	3383.141082094902	23
1	27200	3383.595561906406	24
1	27219	3385.759503197888	23
1	27226	3386.71285561875	22
1	27232	3387.05069354043	23
1	27236	3387.769986402489	22
1	27251	3390.505825174454	23
1	27277	3393.960956808478	24
1	27296	3396.010138383155	23
1	27303	3397.416088442502	24
1	27334	3400.871220076526	25
1	27359	3404.32635171055	26
1	27373	3405.864335243898	25
1	27382	3407.781483344574	26
1	27412	3411.236614978598	27
1	27415	3411.895784857701	26
1	27432	3414.691746612622	27
1	27437	3415.429476133291	26
1	27445	3415.916751266903	25
1	27460	3418.146878246646	26
1	27485	3421.60200988067	27
1	27492	3421.948200880706	26
1	27516	3425.057141514694	27
1	27545	3428.512273148718	28
1	27556	3430.561454723395	27
1	27560	3430.980407687429	26
1	27563	3431.967404782742	27
1	27566	3432.000616903711	26
1	27581	3434.011100108312	25
1	27585	3435.422536416766	26
1	27618	3438.755873464498	25
1	27621	3438.87766805079	26
1	27637	3440.86826130865	25
1	27642	3442.053032926716	24
1	27646	3442.332799684814	25
1	27659	3444.063516131317	24
1	27673	3445.787931318838	25
1	27691	3448.084482540519	24
1	27694	3449.243062952862	25
1	27729	3452.698194586886	26
1	27745	3454.306805018636	25
1	27748	3454.407112731125	24
1	27762	3456.15332622091	25
1	27772	3458.136898563524	24
1	27785	3459.608457854934	25
1	27788	3460.147381768125	24
1	27802	3462.082270795705	23
1	27810	3463.063589488958	24
1	27819	3465.112771063635	23
1	27839	3466.518721122982	24
1	27853	3468.189314586529	23
1	27855	3468.567902697659	22
1	27863	3469.857736572774	21
1	27864	3469.973852757006	22
1	27887	3473.42898439103	23
1	27915	3476.884116025054	24
1	27921	3477.633202349843	23
1	27949	3480.339247659078	24
1	27956	3481.484815576075	23
1	27978	3483.794379293102	24
1	27984	3484.273180223337	23
1	27998	3487.249510927126	24
1	28019	3490.30462983714	23
1	28020	3490.70464256115	24
1	28030	3492.315113041741	23
1	28042	3494.159774195174	24
1	28046	3494.325596246342	23
1	28051	3495.02366699855	22
1	28068	3497.614905829198	23
1	28095	3501.070037463222	24
1	28116	3504.378012269347	23
1	28118	3504.525169097246	24
1	28144	3507.98030073127	25
1	28150	3508.562518421025	24
1	28166	3511.435432365294	25
1	28183	3514.430428292352	24
1	28184	3514.890563999318	25
1	28199	3516.510531235188	24
1	28210	3518.345695633342	25
1	28229	3521.800827267366	26
1	28236	3522.1013698435	25
1	28242	3522.472361110756	24
1	28260	3525.25595890139	25
1	28268	3526.493327519958	24
1	28286	3528.711090535414	25
1	28310	3532.166222169438	26
1	28337	3535.313721285478	25
1	28339	3535.621353803462	26
1	28361	3539.076485437486	27
1	28382	3540.566709952165	26
1	28396	3542.53161707151	27
1	28403	3544.587676361367	26
1	28409	3545.986748705534	27
1	28426	3548.035930280211	26
1	28429	3548.608642770569	25
1	28435	3549.17907268845	24
1	28436	3549.441880339558	25
1	28459	3552.897011973582	26
1	28480	3555.387860120533	25
1	28490	3556.352143607606	26
1	28511	3559.80727524163	27
1	28533	3562.717924110925	26
1	28536	3563.163325897602	25
1	28537	3563.262406875654	26
1	28558	3566.717538509678	27
1	28582	3570.172670143702	28
1	28588	3570.72395802118	27
1	28597	3570.938791674671	26
1	28615	3573.627801777726	27
1	28622	3574.744924430382	26
1	28627	3575.676983352403	25
1	28633	3576.2567755334	24
1	28639	3577.08293341175	25
1	28656	3578.765890839584	24
1	28667	3580.538065045774	25
1	28680	3583.993196679798	26
1	28704	3586.489723228809	25
1	28710	3587.448328313822	26
1	28728	3589.497509888499	25
1	28735	3589.795626955875	24
1	28740	3590.903459947846	25
1	28751	3592.839273271791	24
1	28764	3594.35859158187	25
1	28784	3597.813723215894	26
2	0	0	0
2	5626	602.417818539995	1
2	5870	633.310781223302	2
2	5918	641.237712515431	3
2	6281	689.161699895159	4
2	6811	761.67215220635	5
2	6813	761.935372035771	6
2	6874	769.836420446433	7
2	7064	792.217962569585	8
2	7077	793.269177186727	9
2	7173	806.067362924502	10
2	7176	806.125393494335	11
2	7183	807.511815891707	12
2	7249	816.16396143533	13
2	7266	819.887889460598	14
2	7277	821.754454596687	15
2	7287	823.343021094622	16
2	7290	824.145961057245	17
2	8523	982.279076259726	18
2	8540	985.044896397065	19
2	8566	989.189339527774	20
2	8604	992.666119056447	21
2	8726	1006.908757761427	22
2	8753	1009.920129331918	23
2	8756	1010.811857292893	24
2	8960	1035.154127000636	25
2	9009	1041.091090653379	26
2	9084	1051.381708940206	27
2	9101	1052.485201617363	28
2	9117	1054.83684057423	29
2	9122	1055.333729358359	30
2	9187	1063.605949714695	31
2	9209	1065.54101308889	32
2	9366	1087.55194858044	33
2	9379	1089.516062250311	34
2	9422	1095.533948202355	35
2	9453	1098.534627492275	36
2	9461	1099.753551816542	37
2	9488	1103.51594782427	38
2	9490	1103.758700955291	39
2	9672	1127.775550892069	40
2	11190	1317.84155299073	41
2	11204	1320.246809270987	42
2	11206	1320.311018513718	43
2	11506	1362.343556002366	44
2	11514	1362.974725385927	45
2	11620	1377.217364090907	46
2	11752	1397.157058277879	47
2	11867	1414.248224723855	48
2	11874	1414.990203103811	49
2	12548	1494.671383264575	50
2	12568	1497.093689729302	51
2	12652	1507.907555089391	52
2	12674	1510.914216265398	53
2	12677	1511.098167917719	54
2	13103	1568.068722737639	55
2	13222	1582.095820086151	56
2	13226	1582.118076589208	57
2	13454	1612.504962677462	58
2	13568	1628.388691822214	59
2	13680	1642.20921835831	60
2	13703	1646.29192211449	61
2	13758	1654.273921736405	62
2	13764	1656.373082708515	63
2	13784	1659.48487652843	64
2	13807	1664.424915650604	65
2	13819	1666.395139796478	66
2	13854	1670.237920980235	67
2	13907	1676.76053469855	68
2	13979	1687.706887859471	69
2	13987	1688.472177898097	70
2	14003	1690.581061234646	71
2	14071	1700.946456136718	72
2	14104	1704.401587770742	73
2	14220	1718.859063986351	74
2	15209	1841.527385873255	75
2	15259	1847.224441355247	76
2	15343	1858.798635886919	77
2	15360	1861.467080060227	78
2	15363	1861.805911906195	79
2	15624	1893.733910393855	80
2	15691	1901.71591001577	81
2	15714	1904.799222544134	82
2	15854	1922.074880714254	83
2	16060	1946.922912290107	84
2	16076	1949.771440031103	85
2	17783	2166.259548346799	86
2	18002	2195.03027980215	87
2	18006	2195.06925498455	88
2	18325	2237.472741871699	89
2	18437	2253.767517580558	90
2	19144	2341.790228795558	91
2	19178	2345.716796029547	92
2	19197	2348.70788884301	93
2	19315	2365.656490216519	94
2	19358	2372.115003670156	95
2	19362	2372.177114883812	96
2	19532	2396.5998865745	97
2	21054	2590.690181755203	98
2	21164	2604.442182581666	99
2	21487	2645.659089678098	100
2	21516	2648.381542994934	101
2	21533	2651.68058058648	102
2	21552	2653.357792057115	103
2	21592	2659.054847539107	104
2	21612	2661.47305039539	105
2	21642	2664.928182029414	106
2	21684	2671.838445297462	107
2	21709	2675.749703358676	108
2	22159	2731.187156020284	109
2	22171	2731.84387069493	110
2	22253	2741.662152027991	111
2	22329	2751.306472880014	112
2	22404	2761.671867782086	113
2	22450	2767.298901696955	114
2	22467	2769.126088323063	115
2	22488	2772.037262684158	116
2	22550	2779.73586842642	117
2	22553	2779.88772298043	118
2	22680	2796.223184122326	119
2	22696	2798.632706847911	120
2	22705	2799.67831575635	121
2	22856	2818.572401034883	122
2	22903	2824.269456516875	123
2	22929	2827.62786615791	124
2	22935	2827.980406207622	125
2	23067	2843.59186540174	126
2	23071	2844.595026998662	127
2	23523	2899.877133143046	128
2	23830	2939.37586086472	129
2	23848	2941.059093897711	130
2	23881	2947.357860486635	131
2	23971	2960.998788084683	132
2	23998	2964.721393604765	133
2	24008	2965.524634189502	134
2	24504	3027.717003601934	135
2	24515	3029.363453868587	136
2	24634	3043.606092573567	137
2	24708	3055.358056674126	138
2	24712	3055.882051869527	139
2	24725	3057.848731278547	140
2	25042	3101.537880378164	141
2	25059	3103.729899550462	142
2	25089	3107.185031184486	143
2	25430	3149.001618990419	144
2	25458	3152.101742426798	145
2	25772	3192.62303926667	146
2	25814	3197.426590587351	147
2	25833	3200.473585303134	148
2	25856	3203.928716937158	149
2	26389	3274.61984498515	150
2	26411	3276.983420776928	151
2	26439	3280.428750358538	152
2	26455	3282.882422817231	153
2	26472	3283.783697531432	154
2	26645	3308.519172486195	155
2	26665	3311.367700227191	156
2	26688	3314.492929225926	157
2	26692	3314.529843094725	158
2	27979	3483.794379293102	159
2	28002	3487.500054321163	160
2	28008	3487.976420168943	161
2	28064	3496.522003391931	162
2	28077	3498.11583439877	163
2	28240	3522.158753060895	164
2	28281	3527.855808542887	165
2	28397	3542.53161707151	166
2	28491	3556.352143607606	167
3	0	0	0
3	157	2	59
3	161	2	58
3	168	3.649518795773	57
3	172	4.010483204601	58
3	173	4.010483204601	59
3	183	5.660002000374	60
3	187	6.020966409202	59
3	188	6.020966409202	60
3	194	6.859010945597	59
3	201	7.336542319518	58
3	203	7.465614838625	57
3	206	8.031449613803	58
3	211	8.869494150198	59
3	215	9.347025524119	60
3	220	9.476098043226	59
3	228	9.981999621915	58
3	229	10.041932818404	59
3	233	10.879977354799	60
3	245	11.486581247827	59
3	250	11.78594898167	60
3	254	11.992482826516	59
3	255	12.052416023005	60
3	257	12.05628944835	59
3	266	13.394110963984	58
3	268	13.497064452428	59
3	271	14.002966031117	60
3	274	14.066772652951	59
3	283	14.904817189346	58
3	291	15.404594168585	59
3	292	15.507547657029	60
3	298	16.077255857552	59
3	307	16.620461699897	58
3	309	16.915300393947	59
3	315	17.193443044127	58
3	318	17.415077373186	59
3	319	17.415077373186	58
3	332	18.087739062153	59
3	339	18.356075398025	58
3	343	18.630944904498	59
3	346	18.734910619794	58
3	347	18.925783598548	59
3	350	18.993983056499	58
3	351	19.203926248728	59
3	356	19.425560577787	60
3	357	19.425560577787	59
3	360	19.561414758739	60
3	362	19.613518039603	59
3	365	19.700021513109	58
3	374	20.098222266754	59
3	378	20.366558602626	60
3	382	20.641428109099	59
3	384	20.648574678151	58
3	386	20.745393824395	59
3	388	20.936266803149	60
3	390	21.0044662611	59
3	392	21.214409453329	60
3	395	21.436043782388	59
3	398	21.624001244204	60
3	399	21.71050471771	59
3	410	22.108705471355	60
3	416	22.6519113137	59
3	417	22.659057882752	60
3	418	22.755877028996	59
3	421	23.014949465701	60
3	430	23.446526986989	59
3	433	23.720987922311	60
3	446	24.662394518301	59
3	448	24.766360233597	60
3	457	25.45701019159	59
3	466	25.960660596174	58
3	475	26.633322285141	57
3	477	26.672877722902	58
3	485	27.467493396191	59
3	488	27.558837946199	58
3	495	27.971143800775	59
3	507	28.643805489742	60
3	509	28.683360927503	59
3	520	29.477976600792	60
3	522	29.5693211508	59
3	529	29.981627005376	60
3	536	30.693844132104	59
3	544	31.023452813199	58
3	549	31.240923399794	57
3	553	31.579804355401	58
3	563	32.216688104738	57
3	566	32.386886088254	56
3	569	32.704327336705	57
3	578	33.0339360178	58
3	583	33.251406604395	59
3	587	33.590287560002	60
3	592	33.92799848766	59
3	595	34.227171309339	60
3	602	34.397369292855	59
3	604	34.432033666741	58
3	609	34.70470268326	57
3	611	34.714810541306	58
3	615	35.044419222401	59
3	617	35.112346312877	60
3	619	35.261889808996	59
3	621	35.552855077701	58
3	627	35.938481692261	59
3	632	36.407852497456	60
3	635	36.442516871342	59
3	640	36.715185887861	60
3	641	36.725293745907	59
3	648	37.054902427002	60
3	651	37.272373013597	59
3	654	37.563338282302	60
3	660	37.948964896862	59
3	665	38.453000075943	60
3	670	38.735776950508	59
3	676	39.282856218198	60
3	682	39.465700423938	59
3	686	39.924226791331	58
3	688	39.959448101463	59
3	696	40.746260155109	60
3	704	41.476183628539	59
3	711	41.909998109575	58
3	712	41.934709995932	59
3	713	41.969931306064	60
3	717	42.022609580925	59
3	733	43.48666683314	60
3	740	43.920481314176	59
3	741	43.945193200533	60
3	742	44.033092785526	59
3	763	45.477741214949	58
3	766	45.861385099691	57
3	767	45.930964518777	58
3	768	46.043575990127	59
3	773	46.335194574136	58
3	784	47.48822441955	59
3	788	47.580329132381	58
3	791	47.871868304292	59
3	794	47.941447723378	60
3	798	48.054059194728	59
3	803	48.345677778737	60
3	814	49.137743215323	59
3	819	49.498707624151	60
3	823	49.590812336982	59
3	824	49.882351508893	60
3	827	49.89199773149	59
3	831	49.993303316866	58
3	833	50.055827235217	57
3	835	50.064542399329	58
3	847	51.148226419924	59
3	851	51.396579357402	58
3	856	51.57599911015	57
3	858	51.601295541583	58
3	864	51.902480936091	59
3	866	52.003786521467	60
3	868	52.066310439818	59
3	869	52.07502560393	60
3	879	53.158709624525	59
3	884	53.407062562003	60
3	889	53.586482314751	59
3	890	53.611778746184	60
3	894	53.912964140692	59
3	895	54.076793644419	60
3	911	55.169192829126	59
3	914	55.596965519352	60
3	915	55.923447345293	59
3	931	57.179676033727	60
3	935	57.873997353405	59
3	937	57.933930549894	60
3	948	58.438743644084	59
3	966	59.58484846848	58
3	970	59.884480558006	59
3	976	60.449226848685	60
3	990	61.595331673081	59
3	996	61.894963762607	60
3	1004	62.773772176508	59
3	1013	63.605814877682	60
3	1024	64.784255381109	59
3	1030	65.255333673455	58
3	1033	65.642417112946	57
3	1036	65.85599697532	56
3	1045	66.79473858571	57
3	1049	67.265816878056	58
3	1052	67.652900317547	59
3	1056	67.866480179921	60
3	1062	68.805221790311	59
3	1067	69.276300082657	60
3	1069	69.280624754356	59
3	1071	69.536906782568	58
3	1073	69.663383522148	59
3	1088	70.72094851208	58
3	1091	70.815704994912	59
3	1097	71.108031951571	58
3	1102	71.291107958957	59
3	1104	71.547389987169	60
3	1109	71.673866726749	59
3	1126	72.731431716681	60
3	1129	72.826188199513	59
3	1131	73.118515156172	60
3	1132	73.118515156172	59
3	1138	73.301591163558	60
3	1143	73.68434993135	59
3	1152	73.989675198222	60
3	1156	74.139635699953	59
3	1168	74.836671404114	60
3	1173	75.102308499485	59
3	1174	75.128998360773	60
3	1180	75.694833135951	59
3	1188	76.150118904554	60
3	1195	77.112791704086	59
3	1198	77.244445469161	58
3	1206	77.705316340552	59
3	1219	78.584129994797	58
3	1225	79.123274908687	59
3	1231	79.254928673762	60
3	1238	79.715799545153	59
3	1247	80.594613199398	60
3	1249	80.623002241689	59
3	1257	80.777970729955	58
3	1260	81.133758113288	59
3	1270	81.726282749754	60
3	1272	81.765140975291	59
3	1276	81.81999621915	58
3	1284	82.63348544629	59
3	1289	82.788453934556	60
3	1295	83.144241317889	59
3	1306	83.775624179892	60
3	1307	83.830479423751	59
3	1310	84.078133875713	58
3	1321	84.643968650891	59
3	1324	84.877478488683	58
3	1332	85.15472452249	59
3	1337	85.840962628352	60
3	1344	86.088617080314	59
3	1352	86.654451855492	60
3	1357	86.83081359528	59
3	1360	86.887961693284	60
3	1364	87.165207727091	59
3	1369	87.533265509737	58
3	1373	88.099100284915	59
3	1381	88.841296799881	60
3	1386	89.175690931692	59
3	1389	89.54060675236	60
3	1390	89.543748714338	59
3	1395	89.722770199382	58
3	1402	89.801995841065	57
3	1404	90.109583489516	58
3	1412	90.985255181783	57
3	1414	91.186174136293	58
3	1420	91.554231918939	59
3	1428	91.733253403983	60
3	1430	91.812479045666	59
3	1432	91.929037989266	58
3	1433	92.120066694117	59
3	1438	92.995738386384	60
3	1443	93.160658264762	59
3	1444	93.196657340894	60
3	1449	93.56471512354	59
3	1453	93.798224961332	58
3	1455	93.822962250267	59
3	1459	94.130549898718	60
3	1462	94.417052567788	59
3	1464	94.443528777785	58
3	1471	95.171141469363	59
3	1479	95.575198328141	60
3	1486	95.833445454868	59
3	1487	96.427535772389	60
3	1493	96.608980470652	59
3	1503	97.181624673964	60
3	1507	97.386880022869	59
3	1512	97.843928659469	60
3	1532	98.619463675253	59
3	1537	99.39736322747	60
3	1561	100.629946879854	59
3	1578	101.881096303354	58
3	1584	102.640430084455	59
3	1602	104.343231899279	58
3	1607	104.382070646072	57
3	1611	104.650913289056	58
3	1627	106.661396493657	59
3	1631	106.981184800858	58
3	1648	108.354101308889	57
3	1650	108.671879698258	58
3	1662	110.040287381271	57
3	1674	110.436316434882	56
3	1675	110.682362902859	57
3	1687	111.719186947905	56
3	1700	112.69284610746	57
3	1710	113.530890643855	56
3	1727	114.703329312061	57
3	1744	116.713812516662	58
3	1752	117.551857053057	57
3	1761	118.724295721263	58
3	1772	119.297198353008	57
3	1780	120.734778925864	58
3	1788	121.729994328725	57
3	1793	122.087118290059	56
3	1796	122.410867998654	55
3	1797	122.745262130465	56
3	1805	123.547544353016	55
3	1816	124.633740672526	54
3	1819	124.755745335066	55
3	1836	126.766228539667	56
3	1840	127.00267598704	55
3	1850	128.132179049086	54
3	1855	128.776711744268	55
3	1862	129.082462030128	54
3	1872	130.787194948869	55
3	1885	132.79767815347	56
3	1894	133.584155299073	55
[...]
11	22122	2726.238599632965	59
11	22132	2727.419513323011	58
11	22133	2727.749305858327	59
11	22145	2729.260012083689	60
11	22177	2733.116568805003	59
11	22186	2734.48619361183	58
11	22187	2734.627275030365	59
11	22193	2736.026337880739	58
11	22196	2736.137981255727	59
11	22212	2737.648687481089	60
11	22235	2739.825870316845	59
11	22242	2741.084268794922	58
11	22246	2741.336576542207	59
11	22258	2742.847282767569	60
11	22290	2747.682343978014	59
11	22304	2749.193050203376	60
11	22307	2749.331862773787	59
11	22318	2750.842568999149	60
11	22342	2753.056262991975	59
11	22347	2754.280419161106	58
11	22354	2754.566969217337	59
11	22370	2756.077675442699	60
11	22390	2759.228975548425	59
11	22394	2760.739681773787	60
11	22397	2760.878494344198	59
11	22409	2762.38920056956	60
11	22415	2762.528013139971	59
11	22426	2764.038719365333	60
11	22452	2767.47656952729	59
11	22464	2768.987275752652	60
11	22473	2770.147429437951	59
11	22477	2770.775607118836	58
11	22482	2771.658135663313	59
11	22496	2773.168841888675	60
11	22502	2774.074644710382	59
11	22512	2775.585350935744	60
11	22515	2775.724163506155	59
11	22524	2777.234869731517	60
11	22527	2777.373682301928	59
11	22541	2778.88438852729	60
11	22557	2780.672719893474	59
11	22565	2781.541540401935	58
11	22567	2782.183426118836	59
11	22579	2782.721901468151	58
11	22583	2783.694132344198	59
11	22588	2784.390068142931	58
11	22595	2785.20483856956	59
11	22610	2786.715544794922	60
11	22613	2787.238595883927	59
11	22623	2788.749302109289	60
11	22629	2790.087123624923	59
11	22641	2791.597829850285	60
11	22644	2792.652911825623	59
11	22651	2792.935651365919	58
11	22659	2794.163618050985	59
11	22667	2795.674324276347	60
11	22688	2797.689890475979	59
11	22699	2799.200596701341	60
11	22715	2801.481234588907	59
11	22721	2802.991940814269	60
11	22733	2804.329762329903	59
11	22743	2805.153934211545	58
11	22745	2805.840468555265	59
11	22756	2806.803453007318	58
11	22759	2807.351174780627	59
11	22762	2808.452971803091	58
11	22769	2808.861881005989	59
11	22777	2809.128646380224	58
11	22779	2810.026817811895	57
11	22785	2810.372587231351	58
11	22798	2811.883293456713	59
11	22811	2813.393999682075	60
11	22814	2813.40152819041	59
11	22827	2814.912234415772	60
11	22850	2818.350084577729	59
11	22865	2819.860790803091	60
11	22868	2819.999603373502	59
11	22877	2821.420928775879	58
11	22879	2821.510309598864	59
11	22885	2823.021015824226	60
11	22944	2829.89671614814	59
11	22946	2829.966511998867	58
11	22958	2831.407422373502	59
11	22970	2832.815039739863	58
11	22975	2832.918128598864	59
11	22985	2834.428834824226	60
11	22988	2834.845272535459	59
11	23002	2836.355978760821	60
11	23005	2836.494791331232	59
11	23014	2838.005497556594	60
11	23017	2838.144310127005	59
11	23029	2839.655016352367	60
11	23046	2841.360622962851	59
11	23050	2842.871329188213	60
11	23055	2843.092866514324	59
11	23072	2844.603572739686	60
11	23093	2847.057678444843	59
11	23098	2848.041422901643	58
11	23105	2848.568384670205	59
11	23115	2849.690941697416	58
11	23117	2849.906206185839	57
11	23119	2850.079090895567	58
11	23133	2851.589797120929	59
11	23140	2852.989979288962	58
11	23143	2852.990031479915	57
11	23144	2853.100503346291	58
11	23152	2854.611209571653	59
11	23160	2855.039160863639	58
11	23168	2855.603261667831	57
11	23172	2856.121915797015	58
11	23178	2857.402240360507	57
11	23180	2857.632622022377	58
11	23197	2859.143328247739	59
11	23203	2860.654034473101	60
11	23228	2864.148844890819	59
11	23238	2865.659551116181	60
11	23244	2865.971943184346	59
11	23251	2867.482649409708	60
11	23260	2867.621461980119	59
11	23270	2869.132168205481	60
11	23293	2872.694428113807	59
11	23306	2874.205134339169	60
11	23312	2874.374840411578	59
11	23319	2875.542955854803	58
11	23325	2875.88554663694	59
11	23331	2877.396252862302	60
11	23337	2877.673878003124	59
11	23343	2878.391483595799	58
11	23354	2879.184584228486	59
11	23364	2880.695290453848	60
11	23372	2881.240011336795	59
11	23384	2882.750717562157	60
11	23395	2883.501863511315	59
11	23397	2884.088539077791	58
11	23400	2884.271953186216	57
11	23401	2885.012569736677	58
11	23417	2886.523275962039	59
11	23423	2886.937066818787	58
11	23429	2888.033982187401	59
11	23445	2889.544688412763	60
11	23453	2890.870028369308	59
11	23463	2892.38073459467	60
11	23487	2895.482650041775	59
11	23492	2896.218247535531	58
11	23499	2896.993356267137	59
11	23510	2898.504062492499	60
11	23529	2901.179705523767	59
11	23541	2902.690411749129	60
11	23559	2904.028233264763	59
11	23562	2904.6470445827	58
11	23568	2905.538939490125	59
11	23579	2907.049645715487	60
11	23597	2909.595600970019	59
11	23600	2909.725288746755	58
11	23612	2911.106307195381	59
11	23615	2911.245119765792	58
11	23623	2912.573816487751	57
11	23625	2912.617013420743	58
11	23632	2912.894638561565	57
11	23643	2914.127719646105	58
11	23646	2914.544157357338	57
11	23658	2915.638425871467	58
11	23663	2917.114590245035	57
11	23665	2917.149132096829	58
11	23680	2918.659838322191	59
11	23689	2920.170544547553	60
11	23698	2921.119399710739	59
11	23701	2922.630105936101	60
11	23714	2923.967927451735	59
11	23723	2925.478633677097	60
11	23735	2926.816455192731	59
11	23745	2928.327161418093	60
11	23756	2929.664982933727	59
11	23764	2931.175689159089	60
11	23767	2931.204181933418	59
11	23772	2931.393861242805	58
11	23779	2932.71488815878	59
11	23791	2934.225594384142	60
11	23800	2934.503219524964	59
11	23802	2935.362038415719	58
11	23808	2936.013925750326	59
11	23815	2937.524631975688	60
11	23834	2939.506721451733	59
11	23845	2941.017427677095	60
11	23911	2952.453204861695	59
11	23923	2953.963911087057	60
11	23975	2961.871379888706	59
11	23984	2963.321859730465	58
11	23985	2963.382086114068	59
11	23999	2964.89279233943	60
11	24016	2966.695843566675	59
11	24032	2968.206549792037	60
11	24035	2968.469455071798	59
11	24041	2969.544371307671	58
11	24048	2969.98016129716	59
11	24051	2970.118973867571	58
11	24060	2971.490867522522	59
11	24067	2971.768492663344	58
11	24072	2972.392899048667	57
11	24078	2973.001573747884	58
11	24085	2974.512279973246	59
11	24089	2975.06753025489	58
11	24100	2976.022986198608	59
11	24104	2976.717049050663	58
11	24106	2977.53369242397	59
11	24117	2979.044398649332	60
11	24145	2980.938482271655	59
11	24149	2981.665605437982	58
11	24151	2982.449188497017	59
11	24165	2983.787010012651	58
11	24166	2983.959894722379	59
11	24172	2984.574186778988	58
11	24174	2984.964643029528	57
11	24179	2985.470600947741	58
11	24192	2986.635537753647	57
11	24193	2986.981307173103	58
11	24198	2987.26785859621	57
11	24208	2988.263680621074	56
11	24209	2988.492013398465	57
11	24220	2990.002719623827	58
11	24225	2991.513425849189	59
11	24240	2993.024132074551	60
11	24254	2994.861755804166	59
11	24263	2995.181120976635	58
11	24275	2996.372462029528	59
11	24287	2997.88316825489	60
11	24292	2998.160793395712	59
11	24295	2999.194648478885	58
11	24296	2999.671499621074	59
11	24307	3000.878176458627	58
11	24308	3001.182205846436	59
11	24318	3002.692912071798	60
11	24354	3007.494138084851	59
11	24363	3009.004844310213	60
11	24366	3009.143656880624	59
11	24382	3010.654363105986	60
11	24396	3012.272287422611	59
11	24398	3012.44269447217	58
11	24405	3013.782993647973	59
11	24420	3015.293699873335	60
11	24430	3017.119147938249	59
11	24441	3018.629854163611	60
11	24545	3034.023802665844	59
11	24559	3035.060509350579	58
11	24566	3035.534508891206	59
11	24572	3037.045215116568	60
11	24580	3037.909037091575	59
11	24587	3038.972359053163	58
11	24591	3039.419743316937	59
11	24604	3040.757564832571	58
11	24606	3040.930449542299	59
11	24618	3042.271396644709	58
11	24622	3042.441155767661	59
11	24637	3043.951861993023	60
11	24647	3045.570434236255	59
11	24651	3046.454620314563	58
11	24652	3047.081140461617	59
11	24666	3048.591846686979	60
11	24672	3049.303148055559	59
11	24681	3050.813854280921	60
11	24684	3050.918653402478	59
11	24698	3052.42935962784	60
11	24742	3060.697259019543	59
11	24750	3062.207965244905	60
11	24758	3063.545786760539	59
11	24760	3063.907450377833	58
11	24769	3065.056492985901	59
11	24781	3066.394314501535	58
11	24784	3066.395464956355	57
11	24786	3066.567199211263	58
11	24794	3068.077905436625	59
11	24802	3069.242842242531	58
11	24803	3069.588611661987	59
11	24813	3071.099317887349	60
11	24816	3072.091369983527	59
11	24831	3073.602076208889	60
11	24834	3073.859508691921	59
11	24842	3074.939897724523	58
11	24845	3075.069854437275	57
11	24849	3075.370214917283	58
11	24857	3076.880921142645	59
11	24870	3078.391627368007	60
11	24915	3086.334008688507	59
11	24924	3087.844714913869	60
11	24969	3092.925129537348	59
11	24974	3094.43583576271	60
11	24983	3094.879591911495	59
11	24986	3096.115183052262	58
11	24989	3096.390298136857	59
11	25005	3097.901004362219	60
11	25008	3098.164364626939	59
11	25016	3099.01585330302	58
11	25020	3099.675070852301	59
11	25032	3101.185777077663	60
11	25072	3104.762439810031	59
11	25073	3106.273146035393	60
11	25076	3106.273702875479	59
11	25090	3107.784409100841	60
11	25093	3108.061477401577	59
11	25097	3109.122230616475	58
11	25102	3109.572183626939	59
11	25110	3111.082889852301	60
11	25113	3111.360514993123	59
11	25128	3112.871221218485	60
11	25131	3113.4096965678	59
11	25141	3114.819286098467	58
11	25143	3114.920402793162	59
11	25155	3116.158342078061	58
11	25158	3116.431109018524	59
11	25177	3117.941815243886	60
11	25198	3120.516341580459	59
11	25206	3121.657290546665	58
11	25210	3122.027047805821	59
11	25221	3123.537754031183	60
11	25231	3124.956328138211	59
11	25240	3126.467034363573	60
11	25243	3126.605846933984	59
11	25253	3128.116553159346	60
11	25256	3128.255365729757	59
11	25260	3129.061924803447	58
11	25267	3129.766071955119	59
11	25278	3131.276778180481	60
11	25349	3140.325248988199	59
11	25351	3140.456035767431	58
11	25356	3141.835955213561	59
11	25375	3143.304563508427	58
11	25376	3143.346661438923	59
11	25379	3143.624286579745	58
11	25389	3144.857367664285	59
11	25394	3145.273805375518	58
11	25403	3146.368073889647	59
11	25414	3146.923324171291	58
11	25419	3147.878780115009	59
11	25437	3149.389486340371	60
11	25440	3150.222361762837	59
11	25446	3151.733067988199	60
11	25455	3151.87188055861	59
11	25462	3153.382586783972	60
11	25476	3154.889850656425	59
11	25484	3156.400556881787	60
11	25501	3157.852972260319	59
11	25513	3159.363678485681	60
11	25525	3161.152009851865	59
11	25537	3162.662716077227	60
11	25545	3163.428033518713	59
11	25555	3164.938739744075	60
11	25561	3166.092785436395	59
11	25571	3167.603491661757	60
11	25593	3170.853849900255	59
11	25598	3171.789840918387	58
11	25601	3172.364556125617	59
11	25610	3173.575873488299	58
11	25612	3173.875262350979	59
11	25624	3174.638368659383	58
11	25627	3174.640188877649	57
11	25633	3175.385968576341	58
11	25646	3176.874911079845	57
11	25647	3176.896674801703	58
11	25655	3178.407381027065	59
11	25670	3179.918087252427	60
11	25673	3180.173948671391	59
11	25676	3180.335424141375	58
11	25685	3181.684654896753	59
11	25691	3182.223130246068	58
11	25696	3183.195361122115	59
11	25705	3183.872649041841	58
11	25710	3184.706067347477	59
11	25715	3185.522167837614	58
11	25718	3186.216773572839	59
11	25730	3186.817849144085	58
11	25731	3187.727479798201	59
11	25744	3189.238186023563	60
11	25766	3191.729535105359	59
11	25775	3193.240241330721	60
11	25778	3193.319741125481	59
11	25786	3194.578062846355	58
11	25791	3194.799848766	57
11	25792	3194.830447350843	58
11	25796	3196.341153576205	59
11	25819	3197.851859801567	60
11	25848	3203.123646069343	59
11	25863	3204.634352294705	60
11	25872	3205.972173810339	59
11	25875	3206.104569170743	58
11	25883	3207.482880035701	59
11	25891	3208.820701551335	58
11	25895	3208.993586261063	59
11	25901	3209.403606762289	58
11	25906	3210.504292486425	59
11	25926	3211.669229292331	58
11	25930	3212.014998711787	59
11	25939	3213.525704937149	60
11	25948	3214.352163149608	59
11	25950	3214.517757033327	58
11	25954	3215.86286937497	59
11	25967	3217.366284774323	58
11	25969	3217.373575600332	59
11	25975	3218.164354246197	58
11	25986	3218.884281825694	59
11	25994	3220.041993784357	58
11	25997	3220.394988051056	59
11	26012	3221.905694276418	60
11	26039	3225.896157344823	59
11	26050	3227.406863570185	60
11	26056	3228.760395738307	59
11	26068	3230.271101963669	60
11	26071	3230.705901161731	59
11	26083	3231.608923479303	58
11	26084	3232.216607387093	59
11	26090	3233.122035677237	58
11	26094	3233.727313612455	59
11	26100	3234.457451220299	58
11	26108	3235.238019837817	59
11	26117	3236.748726063179	60
11	26124	3237.305978961295	59
11	26138	3238.816685186657	60
11	26174	3244.255185823345	59
11	26183	3245.765892048707	60
11	26186	3245.851562184283	59
11	26188	3245.904704619118	58
11	26195	3247.362268409645	59
11	26203	3248.700089925279	58
11	26210	3248.872974635007	59
11	26215	3250.383680860369	60
11	26218	3250.508543766983	59
11	26236	3252.019249992345	60
11	26244	3252.996558345505	59
11	26256	3254.507264570867	60
11	26269	3257.245673148267	59
11	26274	3258.65584574132	58
11	26275	3258.756379373629	59
11	26293	3260.267085598991	60
11	26302	3261.671287872999	59
11	26313	3263.181994098361	60
11	26334	3266.512711612248	59
11	26337	3266.637845363235	58
11	26343	3268.02341783761	59
11	26356	3269.534124062972	60
11	26404	3276.271011816475	59
11	26416	3277.185367335239	58
11	26419	3277.781718041837	59
11	26428	3278.779231562765	58
11	26432	3279.292424267199	59
11	26441	3280.803130492561	60
11	26449	3282.078269154311	59
11	26465	3283.588975379673	60
11	26476	3285.340747866291	59
11	26483	3286.851454091653	60
11	26516	3291.428006040219	59
11	26519	3291.603882476825	58
11	26526	3292.938712265581	59
11	26541	3294.449418490943	60
11	26566	3298.565843850895	59
11	26583	3300.076550076257	60
11	26597	3302.607762991591	59
11	26599	3302.822117004203	58
11	26605	3304.118469216953	59
11	26618	3305.629175442315	60
11	26642	3307.732879072989	59
11	26650	3309.243585298351	60
11	26694	3314.730617034985	59
11	26702	3316.241323260347	60
11	26718	3318.828980184339	59
11	26726	3320.339686409701	60
11	26729	3320.478498980112	59
11	26733	3320.844805876619	58
11	26742	3321.989205205474	59
11	26749	3322.51184271664	58
11	26760	3323.499911430836	59
11	26768	3325.010617656198	60
11	26772	3325.148981122643	59
11	26782	3326.659687348005	60
11	26785	3326.798499918416	59
11	26788	3328.309206143778	60
11	26836	3334.155922155159	59
11	26839	3334.206968724623	58
11	26844	3335.465267576516	57
11	26850	3335.666628380521	58
11	26853	3335.856487520396	57
11	26859	3337.177334605883	58
11	26875	3338.47584196047	57
11	26879	3338.688040831245	58
11	26887	3339.852977637151	57
11	26888	3340.198747056607	58
11	26898	3341.709453281969	59
11	26904	3342.701505378147	58
11	26905	3343.220159507331	59
11	26917	3344.730865732693	60
11	26944	3347.745820147098	59
11	26953	3349.25652637246	60
11	26967	3351.247088601135	59
11	26974	3352.555563964006	58
11	26976	3352.757794826497	59
11	26992	3354.268501051859	60
11	27033	3359.792671824123	59
11	27042	3361.191871013879	58
11	27043	3361.303378049485	59
11	27054	3362.814084274847	60
11	27088	3367.770059992438	59
11	27098	3369.2807662178	60
11	27106	3370.40384044813	59
11	27117	3371.914546673492	60
11	27150	3376.883838270099	59
11	27162	3378.394544495461	60
11	27173	3379.732366011095	59
11	27177	3380.692237741321	58
11	27184	3381.243072236457	59
11	27189	3382.580893752091	58
11	27192	3382.753778461819	59
11	27205	3384.264484687181	60
11	27214	3385.429421493087	59
11	27230	3386.940127718449	60
11	27243	3388.560031377621	59
11	27246	3390.070737602983	60
11	27257	3391.126476975079	59
11	27263	3392.637183200441	60
11	27276	3393.947114376104	59
11	27287	3395.457820601466	60
11	27301	3396.823532457071	59
11	27310	3398.334238682433	60
11	27326	3400.038546790556	59
11	27337	3401.549253015918	60
11	27340	3401.688065586329	59
11	27353	3403.198771811691	60
11	27356	3403.337584382102	59
11	27361	3404.848290607464	60
11	27368	3405.369115680059	59
11	27377	3406.879821905421	60
11	27392	3408.217643421055	59
11	27400	3409.728349646417	60
11	27442	3415.662057723928	59
11	27448	3416.763226644043	58
11	27450	3417.17276394929	59
11	27453	3417.311576519701	58
11	27465	3418.683470174652	59
11	27468	3419.611754385039	58
11	27473	3420.194176400014	59
11	27487	3421.704882625376	60
11	27497	3422.460282126035	59
11	27512	3423.970988351397	60
11	27519	3425.142732787333	59
11	27530	3426.653439012695	60
11	27569	3432.133607999089	59
11	27576	3433.644314224451	60
11	27600	3436.702920831015	59
11	27603	3437.109637156133	58
11	27607	3437.808499475795	57
11	27614	3438.213627056377	58
11	27626	3439.724333281739	59
11	27638	3441.235039507101	60
11	27649	3442.399976313007	59
11	27656	3443.910682538369	60
11	27662	3444.107375118129	59
11	27667	3445.248504054003	58
11	27671	3445.618081343491	59
11	27683	3447.128787568853	60
11	27716	3450.945559535995	59
11	27718	3451.504775859029	58
11	27727	3452.456265761357	59
11	27738	3453.794087276991	58
11	27739	3453.966971986719	59
11	27757	3455.477678212081	60
11	27767	3456.852995025252	59
11	27778	3458.363701250614	60
11	27783	3459.491142758983	59
11	27795	3461.001848984345	60
11	27798	3461.989782941353	59
11	27812	3463.500489166715	60
11	27815	3463.639301737126	59
11	27821	3465.150007962488	60
11	27851	3468.036725981971	59
11	27857	3469.547432207333	60
11	27860	3469.595482949373	59
11	27874	3471.106189174735	60
11	27918	3476.89039764276	59
11	27930	3478.401103868122	60
11	27933	3478.539916438533	59
11	27937	3480.050622663895	60
11	27961	3481.869279426164	59
11	27974	3483.379985651526	60
11	28014	3490.133834776855	59
11	28026	3491.644541002217	60
11	28082	3499.370531132927	59
11	28084	3499.635117042489	58
11	28090	3500.881237358289	59
11	28099	3501.284635838262	58
11	28102	3502.219058873923	57
11	28106	3502.391943583651	58
11	28113	3503.902649809013	59
11	28124	3505.067586614919	58
11	28129	3505.413356034375	59
11	28137	3506.924062259737	60
11	28143	3507.916114355915	59
11	28154	3509.426820581277	60
11	28177	3513.613169837907	59
11	28190	3515.123876063269	60
11	28201	3516.726103668837	59
11	28208	3518.236809894199	60
11	28218	3519.310225319899	59
11	28224	3520.820931545261	60
11	28247	3523.760915497701	59
11	28262	3525.271621723063	60
11	28270	3526.678161982925	59
11	28282	3528.188868208287	60
11	28300	3530.704336283883	59
11	28312	3532.215042509245	60
11	28320	3532.864876931897	59
11	28326	3534.375583157259	60
11	28349	3537.289740061748	59
11	28355	3538.025832508345	58
11	28358	3538.80044628711	59
11	28376	3540.311152512472	60
11	28445	3550.644030470855	59
11	28450	3552.154736696217	60
11	28458	3552.768993560073	59
11	28468	3554.279699785435	60
11	28488	3556.341085952847	59
11	28501	3557.851792178209	60
11	28509	3559.189613693843	59
11	28518	3560.700319919205	60
11	28540	3563.998380660755	59
11	28552	3565.509086886117	60
11	28575	3569.392654774868	59
11	28586	3570.583724657827	58
11	28592	3570.90336100023	59
11	28601	3572.414067225592	60
11	28607	3572.465420454805	59
11	28617	3573.976126680167	60
11	28630	3576.033478817327	59
11	28644	3577.544185042689	60
11	28647	3577.6829976131	59
11	28658	3579.129307880815	58
11	28660	3579.193703838462	59
11	28669	3580.704410063824	60
11	28692	3584.826363362807	59
11	28697	3586.337069588169	60
11	28700	3586.390511867453	59
11	28716	3587.674891103803	58
11	28717	3587.901218092815	59
11	28725	3589.411924318177	60
11	28737	3590.523418844799	59
11	28743	3591.366541024497	58
11	28745	3592.034125070161	59
11	28756	3593.544831295523	60
11	28760	3593.89982986175	59
11	28772	3595.410536087112	60
