version 2
run conf2-2-20161125-01:35:59-2288
attr configname conf2
attr datetime 20161125-01:35:59
attr experiment conf2
attr i 15
attr inifile omnetpp.ini
attr iterationvars "$i=15, $p=1"
attr iterationvars2 "$i=15, $p=1, $repetition=0"
attr measurement "$i=15, $p=1"
attr network Omrezje
attr p 1
attr processid 2288
attr repetition 0
attr replication #0
attr resultdir results
attr runnumber 2
attr seedset 2
param Omrezje.router*.processingTime "truncnormal(${p = 1..2 step 1}, ${p} * 0.5)"
param Omrezje.source*.interArrivalTime "truncnormal(${i = 10..15 step 5}, ${i} * 0.5)"

vector 0  Omrezje.router  droppedPackage:vector  ETV
attr interpolationmode  none
attr title  "drop package, vector"
vector 1  Omrezje.router  queueLength:vector  ETV
attr interpolationmode  none
attr title  "queue length, vector"
vector 2  Omrezje.router1  droppedPackage:vector  ETV
attr interpolationmode  none
attr title  "drop package, vector"
vector 3  Omrezje.router1  queueLength:vector  ETV
attr interpolationmode  none
attr title  "queue length, vector"
vector 4  Omrezje.router2  droppedPackage:vector  ETV
attr interpolationmode  none
attr title  "drop package, vector"
vector 5  Omrezje.router2  queueLength:vector  ETV
attr interpolationmode  none
attr title  "queue length, vector"
vector 6  Omrezje.router3  droppedPackage:vector  ETV
attr interpolationmode  none
attr title  "drop package, vector"
vector 7  Omrezje.router3  queueLength:vector  ETV
attr interpolationmode  none
attr title  "queue length, vector"
vector 8  Omrezje.router4  droppedPackage:vector  ETV
attr interpolationmode  none
attr title  "drop package, vector"
vector 9  Omrezje.router4  queueLength:vector  ETV
attr interpolationmode  none
attr title  "queue length, vector"
vector 10  Omrezje.router5  droppedPackage:vector  ETV
attr interpolationmode  none
attr title  "drop package, vector"
vector 11  Omrezje.router5  queueLength:vector  ETV
attr interpolationmode  none
attr title  "queue length, vector"
0	0	0	0
1	0	0	0
1	182	3.597813651971	59
1	191	4.701978169388	60
1	198	5.195627303942	59
1	203	6.299791821359	60
1	219	12.295130196747	59
1	226	13.399294714164	60
1	280	23.843271072047	59
1	283	24.059313560018	58
1	289	24.600209555326	57
1	293	24.947435589464	58
1	295	25.163478077435	59
1	298	25.208550717113	58
1	299	25.704374072743	59
1	303	26.051600106881	60
1	306	26.267642594852	59
1	307	26.31271523453	60
1	309	26.545098423754	59
1	315	26.80853859016	60
1	320	27.371807112269	59
1	323	27.649262941171	60
1	329	28.142912075725	59
1	333	28.475971629686	60
1	336	29.247076593142	59
1	338	29.252043333169	58
1	342	30.351241110559	59
1	343	30.356207850586	60
1	347	31.455405627976	59
1	351	32.559570145393	60
1	381	38.387079831075	59
1	384	39.491244348492	60
1	398	41.089058000463	59
1	403	41.563598900112	58
1	405	42.19322251788	59
1	410	42.667763417529	60
1	414	43.297387035297	59
1	418	44.401551552714	60
1	433	47.084396375851	59
1	436	47.200419110652	58
1	443	48.188560893268	59
1	448	48.304583628069	60
1	452	48.964632596751	59
1	455	49.080655331552	58
1	460	49.292725410685	59
1	464	50.068797114168	60
1	466	50.184819848969	59
1	467	50.396889928102	60
1	471	51.288984366386	59
1	476	52.393148883803	60
1	492	57.148283900045	59
1	498	58.252448417462	60
1	515	59.850262069433	59
1	527	60.230350903122	58
1	535	60.95442658685	59
1	538	61.334515420539	60
1	547	62.058591104267	59
1	557	63.162755621684	60
1	559	63.459808424719	59
1	561	64.563972942136	60
1	574	68.177940680054	59
1	575	69.282105197471	60
1	597	71.398442317949	59
1	605	71.86633862505	58
1	607	72.502606835366	59
1	612	72.970503142467	60
1	617	73.606771352783	59
1	621	73.74657484595	58
1	625	74.7109358702	59
1	632	74.850739363367	60
1	634	75.815100387617	59
1	635	75.840107709757	60
1	642	76.448553015338	59
1	645	76.919264905034	60
1	647	77.552717532755	59
1	650	78.656882050172	60
1	754	97.194279177217	59
1	760	98.298443694634	60
1	781	101.266911020081	59
1	784	102.371075537498	60
1	801	107.965612189283	59
1	802	109.0697767067	60
1	805	109.845848410183	59
1	807	110.9500129276	60
1	814	112.29656780009	59
1	818	112.701728440481	58
1	822	113.400732317507	59
1	825	113.805892957898	60
1	833	114.504896834924	59
1	844	115.609061352341	60
1	868	118.664571387673	59
1	872	119.76873590509	60
1	884	123.326224580099	59
1	889	124.430389097516	60
1	911	127.626016401458	59
1	913	127.702346514823	58
1	920	128.730180918875	59
1	923	128.80651103224	60
1	939	129.834345436292	59
1	949	130.938509953709	60
1	959	132.483527890537	59
1	965	133.587692407954	60
1	972	134.355881360108	59
1	973	135.460045877525	60
1	1015	145.385538140117	59
1	1020	146.489702657534	60
1	1041	149.685329961476	59
1	1053	150.789494478893	60
1	1066	152.265327340593	59
1	1073	153.36949185801	60
1	1080	156.415194920126	59
1	1085	157.519359437543	60
1	1088	158.345874994451	59
1	1093	158.656581948477	58
1	1100	159.450039511868	59
1	1103	159.760746465894	60
1	1121	160.554204029285	59
1	1140	161.658368546702	60
1	1166	166.431943886248	59
1	1174	167.444851700135	58
1	1175	167.536108403665	59
1	1177	168.549016217552	60
1	1180	168.640272921082	59
1	1186	169.744437438499	60
1	1201	172.232548727636	59
1	1204	173.336713245053	60
1	1231	178.474508480144	59
1	1236	179.578672997561	60
1	1296	187.09644498047	59
1	1299	188.200609497887	60
1	1325	194.938777637043	59
1	1329	196.04294215446	60
1	1335	196.819013857943	59
1	1339	197.92317837536	60
1	1347	200.533822040162	59
1	1348	201.637986557579	60
1	1371	205.219471082877	59
1	1380	206.323635600294	60
1	1392	207.048408697963	59
1	1397	208.15257321538	60
1	1414	212.333410726595	59
1	1418	213.437575244012	60
1	1457	221.805643228991	59
1	1461	222.59313560018	58
1	1462	222.909807746408	59
1	1464	223.697300117597	60
1	1466	224.013972263825	59
1	1467	225.118136781242	60
1	1469	225.295113769568	59
1	1471	226.399278286985	60
1	1515	233.622792380189	59
1	1519	234.726956897606	60
1	1530	237.317719317662	59
1	1538	238.421883835079	60
1	1550	239.495979892522	59
1	1555	240.600144409939	60
1	1564	243.940097888661	59
1	1568	245.044262406078	60
1	1616	255.682105940207	59
1	1618	255.819993450475	58
1	1622	256.786270457624	59
1	1624	256.924157967892	60
1	1627	257.679965690607	59
1	1628	257.890434975041	60
1	1634	258.784130208024	59
1	1636	259.771428477132	58
1	1638	259.888294725441	59
1	1642	260.875592994549	60
1	1644	260.992459242858	59
1	1653	262.096623760275	60
1	1661	262.967055781074	59
1	1664	264.071220298491	60
1	1675	266.711762720216	59
1	1678	267.815927237633	60
1	1700	273.214626540027	59
1	1704	274.318791057444	60
1	1710	274.812440191998	59
1	1712	275.094862760927	58
1	1714	275.916604709415	59
1	1717	276.199027278344	60
1	1720	276.410253843969	59
1	1721	277.020769226832	60
1	1724	277.514418361386	59
1	1727	277.741419500225	58
1	1730	278.618582878803	59
1	1731	278.845584017642	60
1	1735	279.72274739622	59
1	1739	280.826911913637	60
1	1773	285.997135755795	59
1	1775	287.101300273212	60
1	1778	287.594949407766	59
1	1781	288.699113925183	60
1	1785	288.771076280234	59
1	1789	289.875240797651	60
1	1813	295.057897612074	59
1	1820	296.162062129491	60
1	1826	296.655711264045	59
1	1834	297.759875781462	60
1	1842	299.800733060243	59
1	1845	300.90489757766	60
1	1864	307.537454232279	59
1	1865	308.641618749696	60
1	1869	309.13526788425	59
1	1870	310.239432401667	60
1	1876	310.830389840252	59
1	1878	311.01550410515	58
1	1889	311.934554357669	59
1	1893	312.119668622567	60
1	1895	312.231923084862	59
1	1899	313.038718875086	60
1	1900	313.336087602279	59
1	1905	314.323385871387	58
1	1906	314.440252119696	59
1	1910	315.427550388804	60
1	1913	315.544416637113	59
1	1915	315.921199523358	58
1	1917	316.64858115453	59
1	1921	317.025364040775	60
1	1925	317.752745671947	59
1	1936	318.856910189364	60
1	1940	319.1168268273	59
1	1944	320.220991344717	60
1	1953	321.860046620261	59
1	1956	322.964211137678	60
1	2019	334.336309284558	59
1	2024	335.440473801975	60
1	2058	343.919360180279	59
1	2064	345.023524697696	60
1	2079	348.271801867098	59
1	2081	349.375966384515	60
1	2084	349.691231859961	59
1	2094	350.795396377378	60
1	2099	351.490475443011	59
1	2102	352.594639960428	60
1	2105	353.088289094982	59
1	2107	353.370711663911	58
1	2109	354.192453612399	59
1	2112	354.474876181328	60
1	2115	354.686102746953	59
1	2119	355.296618129816	60
1	2122	355.79026726437	59
1	2127	356.894431781787	60
1	2167	363.603352885216	59
1	2172	364.707517402633	60
1	2175	365.483589106116	59
1	2182	365.978673740297	58
1	2183	366.587753623533	59
1	2185	366.783880479117	60
1	2187	367.082838257714	59
1	2193	367.69191814095	60
1	2198	368.187002775131	59
1	2202	369.291167292548	60
1	2207	370.473156917613	59
1	2209	371.57732143503	60
1	2222	373.668784221555	59
1	2226	374.772948738972	60
1	2232	375.266597873526	59
1	2239	376.370762390943	60
1	2246	377.008330520306	59
1	2252	378.112495037723	60
1	2265	381.65785248141	59
1	2267	382.762016998827	60
1	2285	384.639773463268	59
1	2292	385.743937980685	60
1	2296	386.203562440542	59
1	2298	386.279741622115	58
1	2299	387.307726957959	59
1	2301	387.383906139532	60
1	2306	388.037987300315	59
1	2308	388.083798661442	58
1	2310	388.411891475376	59
1	2318	389.142151817732	60
1	2320	389.187963178859	59
1	2323	389.516055992793	60
1	2325	390.292127696276	59
1	2331	391.396292213693	60
1	2348	395.372974399387	59
1	2355	396.477138916804	60
1	2380	403.645501209841	59
1	2382	404.749665727258	60
1	2385	405.243314861812	59
1	2386	406.347479379229	60
1	2394	407.123551082712	59
1	2399	408.227715600129	60
1	2402	408.694702323348	59
1	2405	408.803771995868	58
1	2409	409.798866840765	59
1	2412	409.907936513285	60
1	2422	410.684008216768	59
1	2430	410.903031358182	60
1	2436	411.788172734185	59
1	2445	412.892337251602	60
1	2449	413.488143279261	59
1	2455	414.592307796678	60
1	2461	415.368379500161	59
1	2463	416.472544017578	60
1	2484	421.069007801219	59
1	2487	421.126957640342	58
1	2492	422.173172318636	59
1	2494	422.231122157759	60
1	2499	422.949244022119	59
1	2503	423.277336836053	60
1	2508	424.053408539536	59
1	2517	425.157573056953	60
1	2524	427.460262409103	59
1	2534	428.56442692652	60
1	2537	429.058076061074	59
1	2546	430.162240578491	60
1	2559	431.403981551194	59
1	2563	432.508146068611	60
1	2566	433.284217772094	59
1	2573	434.388382289511	60
1	2612	443.257081846684	59
1	2613	444.361246364101	60
1	2618	444.854895498655	59
1	2625	445.959060016072	60
1	2666	454.00419110652	59
1	2670	454.215927980369	58
1	2676	455.108355623937	59
1	2681	455.320092497786	60
1	2690	455.88442732742	59
1	2695	456.212520141354	60
1	2703	456.988591844837	59
1	2707	458.092756362254	60
1	2714	462.25897177582	59
1	2721	463.363136293237	60
1	2727	464.555590525099	59
1	2733	465.659755042516	60
1	2739	466.435826745999	59
1	2748	467.539991263416	60
1	2771	473.252907069875	59
1	2775	474.357071587292	60
1	2827	482.346139847147	59
1	2828	483.450304364564	60
1	2849	487.304898320396	59
1	2853	488.409062837813	60
1	2861	489.990405133584	59
1	2862	491.094569651001	60
1	2866	491.588218785555	59
1	2868	492.692383302972	60
1	2878	493.743688251778	59
1	2886	494.847852769195	60
1	2954	508.042173248979	59
1	2957	509.146337766396	60
1	2961	509.364211880414	59
1	2966	509.922409469879	58
1	2971	510.468376397831	59
1	2975	511.026573987296	60
1	2984	511.572540915248	59
1	2989	512.676705432665	60
1	3006	517.073025621762	59
1	3007	518.177190139179	60
1	3027	521.804819772498	59
1	3032	522.908984289915	60
1	3095	534.093679853712	59
1	3098	535.197844371129	60
1	3102	535.691493505683	59
1	3103	536.7956580231	60
1	3194	551.495304205924	59
1	3195	552.599468723341	60
1	3204	553.48283900045	59
1	3205	554.587003517867	60
1	3220	558.474250954824	59
1	3224	559.578415472241	60
1	3247	564.512495780459	59
1	3252	565.616660297876	60
1	3292	570.15219772313	59
1	3293	571.256362240547	60
1	3317	577.620705607187	59
1	3324	578.724870124604	60
1	3328	579.500941828087	59
1	3333	580.605106345504	60
1	3360	586.571809340477	59
1	3368	587.098670990213	58
1	3369	587.675973857894	59
1	3373	588.20283550763	60
1	3377	588.696484642184	59
1	3378	588.780138375311	60
1	3382	589.605448438476	59
1	3383	589.800649159601	60
1	3387	590.294298294155	59
1	3389	590.709612955893	60
1	3391	591.398462811572	59
1	3398	592.502627328989	60
1	3455	605.267158640747	59
1	3456	606.371323158164	60
1	3460	606.864972292718	59
1	3461	607.969136810135	60
1	3467	608.631122900495	59
1	3475	609.735287417912	60
1	3481	611.009198505486	59
1	3485	612.113363022903	60
1	3518	615.802639461399	59
1	3519	616.906803978816	60
1	3530	619.660779680504	59
1	3540	620.764944197921	60
1	3548	621.359681652307	59
1	3562	622.463846169724	60
1	3578	626.646771742774	59
1	3579	627.750936260191	60
1	3585	628.244585394745	59
1	3586	629.348749912162	60
1	3597	630.690436460513	59
1	3601	631.79460097793	60
1	3614	634.990228281872	59
1	3618	636.094392799289	60
1	3622	636.588041933843	59
1	3626	637.69220645126	60
1	3645	641.381482889756	59
1	3649	642.485647407173	60
1	3658	642.979296541727	59
1	3665	644.083461059144	60
1	3698	647.77273749764	59
1	3699	648.876902015057	60
1	3703	649.65297371854	59
1	3705	650.757138235957	60
1	3737	655.96797543485	59
1	3747	657.072139952267	60
1	3753	657.727653248477	59
1	3764	658.831817765894	60
1	3777	661.416929686973	59
1	3778	662.52109420439	60
1	3804	666.210370642886	59
1	3805	667.314535160303	60
1	3813	669.405997946828	59
1	3814	670.510162464245	60
1	3837	674.809063580549	59
1	3841	675.913228097966	60
1	3847	676.405288181116	59
1	3849	677.509452698533	60
1	3864	679.600915485058	59
1	3871	680.00628665978	58
1	3875	680.705080002475	59
1	3879	681.110451177197	60
1	3884	681.809244519892	59
1	3887	682.913409037309	60
1	3899	685.838720360558	59
1	3900	686.942884877975	60
1	3909	688.540698529946	59
1	3916	689.644863047363	60
1	3921	690.685820689275	59
1	3922	691.789985206692	60
1	3925	692.566056910175	59
1	3930	693.670221427592	60
1	3932	694.095624844647	59
1	3937	695.199789362064	60
1	3956	698.016025246258	59
1	3971	699.120189763675	60
1	3990	702.606496215106	59
1	3992	703.710660732523	60
1	3995	704.486732436006	59
1	3997	705.590896953423	60
1	4006	707.898033920576	59
1	4009	709.002198437993	60
1	4041	716.085986570384	59
1	4042	717.190151087801	60
1	4045	717.683800222355	59
1	4049	718.787964739772	60
1	4054	718.927690700585	59
1	4056	719.307597360941	58
1	4057	720.031855218002	59
1	4059	720.411761878358	60
1	4064	721.136019735419	59
1	4074	722.240184252836	60
1	4077	722.503224664883	59
1	4081	723.6073891823	60
1	4116	730.135503626883	59
1	4121	731.2396681443	60
1	4163	740.987004260603	59
1	4167	742.09116877802	60
1	4187	745.754692389063	59
1	4188	746.85885690648	60
1	4226	752.016661040612	59
1	4232	753.120825558029	60
1	4238	753.934672329369	59
1	4239	755.038836846786	60
1	4268	760.264353047483	59
1	4270	761.3685175649	60
1	4273	762.144589268383	59
1	4277	763.046317820621	58
1	4278	763.2487537858	59
1	4280	764.150482338038	60
1	4282	764.352918303217	59
1	4287	765.457082820634	60
1	4316	769.640008393684	59
1	4320	770.744172911101	60
1	4326	771.237822045655	59
1	4332	772.341986563072	60
1	4340	774.07597460063	59
1	4345	774.433449349597	58
1	4346	775.180139118047	59
1	4348	775.537613867014	60
1	4358	776.284303635464	59
1	4363	777.388468152881	60
1	4396	784.687461021138	59
1	4403	785.105631380639	58
1	4405	785.618144913394	57
1	4406	785.791625538555	58
1	4408	786.209795898056	59
1	4410	786.722309430811	60
1	4413	786.895790055972	59
1	4415	787.215958565365	58
1	4416	787.313960415473	59
1	4417	787.999954573389	60
1	4419	788.320123082782	59
1	4420	788.41812493289	60
1	4430	789.424287600199	59
1	4436	790.528452117616	60
1	4446	793.00733443641	59
1	4457	794.111498953827	60
1	4460	794.88757065731	59
1	4474	795.991735174727	60
1	4478	796.135288160648	59
1	4480	796.802840477191	58
1	4483	797.239452678065	59
1	4486	797.907004994608	60
1	4490	798.343617195482	59
1	4496	799.447781712899	60
1	4522	802.871446819223	59
1	4527	803.750935771363	58
1	4528	803.97561133664	59
1	4532	804.85510028878	60
1	4535	805.079775854057	59
1	4536	806.183940371474	60
1	4543	807.164944940657	59
1	4544	808.269109458074	60
1	4558	812.448252316139	59
1	4559	813.552416833556	60
1	4563	814.04606596811	59
1	4567	815.150230485527	60
1	4596	818.194601720666	59
1	4600	819.298766238083	60
1	4629	825.230761531907	59
1	4630	826.334926049324	60
1	4635	827.110997752807	59
1	4640	828.215162270224	60
1	4646	828.426388835849	59
1	4649	829.224258500675	58
1	4650	829.530553353266	59
1	4654	830.02420248782	58
1	4655	830.328423018092	59
1	4658	830.634717870683	60
1	4662	831.128367005237	59
1	4665	831.432587535509	60
1	4667	831.622016139791	59
1	4669	832.232531522654	60
1	4672	832.726180657208	59
1	4683	833.830345174625	60
1	4730	840.253915280684	59
1	4734	841.358079798101	60
1	4765	847.600152659501	59
1	4768	848.704317176918	60
1	4779	851.283572060693	59
1	4782	852.38773657811	60
1	4790	853.985550230081	59
1	4795	855.089714747498	60
1	4814	857.181177534023	59
1	4817	858.28534205144	60
1	4833	861.974618489936	59
1	4839	862.313228840702	58
1	4843	863.078783007353	59
1	4845	863.417393358119	60
1	4849	864.18294752477	59
1	4851	865.256601084883	58
1	4852	865.287112042187	59
1	4853	866.3607656023	60
1	4855	866.391276559604	59
1	4857	866.854414736854	58
1	4860	867.136837305783	57
1	4865	867.495441077021	58
1	4868	867.958579254271	59
1	4870	868.2410018232	60
1	4872	868.599605594438	59
1	4875	869.062743771688	60
1	4879	869.703770111855	59
1	4882	870.807934629272	60
1	4900	873.342885620711	59
1	4903	874.447050138128	60
1	4909	874.927281781542	59
1	4910	876.031446298959	60
1	4936	881.318536389426	59
1	4942	882.422700906843	60
1	4963	884.514163693368	59
1	4964	885.618328210785	60
1	4987	890.724101219123	59
1	4993	891.82826573654	60
1	5000	893.399166371231	59
1	5001	894.503330888648	60
1	5012	896.594793675173	59
1	5019	897.69895819259	60
1	5029	899.790420979115	59
1	5030	900.894585496532	60
1	5065	908.118734308675	59
1	5069	909.222898826092	60
1	5075	909.998970529575	59
1	5077	911.103135046992	60
1	5114	917.461512740747	59
1	5117	918.565677258164	60
1	5123	919.092203306847	59
1	5124	920.196367824264	60
1	5139	923.88564426276	59
1	5148	924.989808780177	60
1	5161	928.491169520756	59
1	5164	928.608591768366	58
1	5168	929.595334038173	59
1	5171	929.712756285783	60
1	5174	930.159347405818	59
1	5178	930.487440219752	60
1	5184	930.488827989266	59
1	5186	930.69949855559	60
1	5190	931.263511923235	59
1	5191	931.592992506683	60
1	5196	932.367676440652	59
1	5203	933.471840958069	60
1	5225	939.520826300765	59
1	5226	940.624990818182	60
1	5265	950.550483080774	59
1	5270	951.208801323692	58
1	5274	951.654647598191	59
1	5276	952.312965841109	60
1	5281	952.758812115608	59
1	5283	953.027503026632	58
1	5284	953.862976633025	59
1	5285	954.131667544049	60
1	5288	954.625316678603	59
1	5290	954.907739247532	58
1	5292	954.967141150442	59
1	5294	955.72948119602	60
1	5296	956.011903764949	59
1	5297	956.071305667859	60
1	5303	957.116068282366	59
1	5309	958.220232799783	60
1	5323	961.016571286487	59
1	5327	962.120735803904	60
1	5330	962.614384938458	59
1	5335	963.718549455875	60
1	5341	964.494621159358	59
1	5345	965.598785676775	60
1	5383	970.40363904341	59
1	5387	971.507803560827	60
1	5391	972.001452695381	59
1	5395	973.105617212798	60
1	5424	977.899058168711	59
1	5426	979.003222686128	60
1	5429	979.779294389611	59
1	5434	980.883458907028	60
1	5449	983.639453420801	59
1	5455	984.743617938218	60
1	5480	988.728674052503	59
1	5481	989.83283856992	60
1	5485	990.326487704474	59
1	5489	991.430652221891	60
1	5494	991.924301356445	59
1	5495	993.028465873862	60
1	5520	996.409220434344	59
1	5529	997.513384951761	60
1	5569	1006.912659850588	59
1	5578	1008.016824368005	60
1	5609	1016.728423760828	59
1	5615	1017.832588278245	60
1	5643	1021.079276396243	59
1	5646	1021.183849390763	58
1	5648	1022.18344091366	59
1	5651	1022.781663042734	58
1	5652	1023.287605431077	59
1	5657	1024.391769948494	60
1	5678	1027.758080540837	59
1	5685	1028.862245058254	60
1	5690	1029.881165935539	59
1	5691	1030.985330452956	60
1	5694	1031.47897958751	59
1	5697	1031.761402156439	58
1	5699	1032.583144104927	59
1	5703	1033.687308622344	60
1	5724	1038.578482480315	59
1	5728	1039.682646997732	60
1	5745	1041.609639544996	59
1	5756	1042.713804062413	60
1	5763	1043.489875765896	59
1	5766	1043.603047399343	58
1	5769	1044.594040283313	59
1	5774	1045.69820480073	60
1	5840	1060.334699899973	59
1	5845	1060.847050880864	58
1	5846	1061.43886441739	59
1	5848	1062.543028934807	60
1	5898	1071.876707660873	59
1	5904	1072.98087217829	60
1	5919	1075.631233790498	59
1	5921	1076.735398307915	60
1	5959	1086.810058655648	59
1	5962	1087.914223173065	60
1	5965	1088.690294876548	59
1	5970	1089.794459393965	60
1	6015	1098.063712804128	59
1	6018	1099.167877321545	60
1	6042	1104.9656780009	59
1	6047	1106.069842518317	60
1	6056	1107.667656170288	59
1	6058	1108.771820687705	60
1	6061	1109.265469822259	59
1	6064	1109.410268210974	58
1	6067	1110.369634339676	59
1	6070	1111.145706043159	58
1	6075	1111.473798857093	59
1	6078	1112.57796337451	60
1	6097	1115.995334780909	59
1	6106	1117.099499298326	60
1	6111	1117.614388291069	59
1	6117	1118.718552808486	60
1	6141	1125.551647928075	59
1	6150	1126.655812445492	60
1	6180	1132.0104777663	59
1	6189	1133.114642283717	60
1	6194	1133.8907139872	59
1	6201	1134.994878504617	60
1	6204	1135.846778124822	59
1	6205	1136.950942642239	60
1	6216	1138.054648340927	59
1	6217	1139.158812858344	60
1	6235	1142.938351036556	59
1	6239	1144.042515553973	60
1	6242	1144.536164688527	59
1	6245	1145.640329205944	60
1	6249	1146.133978340498	59
1	6250	1147.238142857915	60
1	6301	1154.610687321626	59
1	6302	1155.714851839043	60
1	6306	1155.720860252324	59
1	6307	1156.825024769741	60
1	6319	1160.113961900945	59
1	6324	1161.218126418362	60
1	6362	1167.609381026246	59
1	6366	1168.713545543663	60
1	6371	1169.207194678217	59
1	6375	1170.311359195634	60
1	6382	1171.143618680954	59
1	6385	1172.247783198371	60
1	6389	1172.993910122536	59
1	6392	1174.098074639953	60
1	6427	1182.173275460963	59
1	6428	1183.27743997838	60
1	6445	1184.735148579008	59
1	6460	1185.839313096425	60
1	6520	1202.919134377093	59
1	6524	1204.02329889451	60
1	6530	1204.259744414773	59
1	6534	1205.36390893219	60
1	6543	1206.139980635673	59
1	6551	1207.24414515309	60
1	6563	1212.524813375835	59
1	6564	1213.628977893252	60
1	6571	1215.26224580099	59
1	6579	1216.366410318407	60
1	6589	1219.550500703871	59
1	6600	1220.654665221288	60
1	6603	1221.103120175178	59
1	6606	1221.222129920611	58
1	6610	1222.207284692595	59
1	6622	1223.311449210012	60
1	6650	1229.192381284241	59
1	6653	1230.296545801658	60
1	6659	1230.790194936212	59
1	6660	1231.894359453629	60
1	6665	1232.670431157112	59
1	6671	1233.774595674529	60
1	6682	1237.321559361008	59
1	6686	1238.425723878425	60
1	6697	1239.287105973263	59
1	6706	1240.39127049068	60
1	6724	1245.008017618047	59
1	6727	1245.01152554293	58
1	6731	1246.112182135464	59
1	6735	1247.216346652881	60
1	6738	1247.314079554939	59
1	6740	1247.992418356364	58
1	6744	1248.351216141017	57
1	6745	1248.418244072356	58
1	6748	1249.522408589773	59
1	6759	1250.62657310719	60
1	6764	1253.211685028269	59
1	6765	1254.315849545686	60
1	6786	1258.005125984182	59
1	6787	1259.109290501599	60
1	6794	1259.380872921026	59
1	6796	1259.602939636153	58
1	6798	1259.885362205082	57
1	6804	1260.485037438443	58
1	6816	1261.58920195586	59
1	6823	1262.693366473277	60
1	6841	1265.994194244037	59
1	6842	1267.098358761454	60
1	6863	1270.78763519995	59
1	6870	1271.891799717367	60
1	6918	1278.542529476993	59
1	6922	1279.64669399441	60
1	6925	1280.269319727431	59
1	6929	1281.373484244848	60
1	6982	1290.800662278819	59
1	6986	1291.904826796236	60
1	7003	1293.839063367518	59
1	7013	1294.943227884935	60
1	7030	1299.497978823595	59
1	7031	1300.602143341012	60
1	7037	1301.378215044495	59
1	7041	1302.482379561912	60
1	7078	1312.812154208908	59
1	7083	1313.916318726325	60
1	7108	1317.111946030267	59
1	7114	1318.216110547684	60
1	7180	1330.34962937531	59
1	7181	1331.453793892727	60
1	7199	1335.143070331223	59
1	7206	1336.24723484864	60
1	7215	1336.740883983194	59
1	7221	1337.845048500611	60
1	7226	1338.621120204094	59
1	7236	1339.725284721511	60
1	7255	1342.984561547475	59
1	7256	1344.088726064892	60
1	7296	1353.279691744222	59
1	7299	1354.383856261639	60
1	7311	1358.01257331956	59
1	7316	1358.647783941107	58
1	7320	1359.116737836977	59
1	7323	1360.220902354394	60
1	7327	1360.379194637027	59
1	7330	1361.483359154444	60
1	7355	1366.575006559858	59
1	7360	1367.679171077275	60
1	7363	1369.076511181803	59
1	7366	1369.677440721116	58
1	7367	1370.18067569922	59
1	7370	1371.284840216637	60
1	7393	1375.442012962234	59
1	7402	1376.546177479651	60
1	7449	1385.580734306431	59
1	7456	1386.684898823848	60
1	7469	1391.736754281134	59
1	7470	1392.840918798551	60
1	7476	1394.438732450522	59
1	7481	1395.542896967939	60
1	7519	1402.766411061143	59
1	7527	1403.87057557856	60
1	7541	1405.362533756487	59
1	7542	1406.466698273904	60
1	7546	1406.960347408458	59
1	7550	1408.064511925875	60
1	7606	1421.260410450459	59
1	7607	1422.364574967876	60
1	7623	1424.825724621161	59
1	7628	1425.813201985538	58
1	7629	1425.929889138578	59
1	7633	1426.284975369487	58
1	7636	1427.034053655995	59
1	7639	1428.138218173412	60
1	7657	1431.827494611908	59
1	7658	1432.931659129325	60
1	7679	1435.85538140117	59
1	7682	1436.959545918587	60
1	7694	1438.655043540011	59
1	7695	1439.759208057428	60
1	7700	1440.535279760911	59
1	7711	1441.639444278328	60
1	7716	1443.103681522506	59
1	7717	1444.207846039923	60
1	7728	1446.885038181179	59
1	7730	1447.352360084787	58
1	7731	1447.989202698596	59
1	7735	1448.413411540864	58
1	7736	1449.093367216013	59
1	7739	1449.587016350567	58
1	7742	1449.869438919496	57
1	7744	1450.19753173343	58
1	7747	1451.301696250847	59
1	7758	1452.405860768264	60
1	7767	1453.986265931061	59
1	7773	1455.090430448478	60
1	7787	1457.914694961188	59
1	7793	1459.018859478605	60
1	7824	1463.804271806002	59
1	7825	1464.908436323419	60
1	7843	1468.944351741197	59
1	7846	1470.048516258614	60
1	7854	1471.646329910585	59
1	7868	1472.750494428002	60
1	7911	1480.129178006786	59
1	7918	1481.233342524203	60
1	7923	1482.141626263891	59
1	7924	1483.245790781308	60
1	7927	1484.021862484791	59
1	7929	1485.126027002208	60
1	7950	1491.003665301215	59
1	7957	1492.107829818632	60
1	7969	1493.613830651516	59
1	7974	1494.717995168933	60
1	8001	1500.081021747075	59
1	8006	1501.185186264492	60
1	8009	1501.678835399046	59
1	8014	1502.033322081224	58
1	8015	1502.782999916463	59
1	8019	1503.88716443388	60
1	8025	1505.484978085851	59
1	8027	1506.589142603268	60
1	8042	1508.680605389793	59
1	8046	1509.78476990721	60
1	8051	1510.560841610693	59
1	8059	1511.66500612811	60
1	8070	1513.062978861233	59
1	8073	1514.16714337865	60
1	8094	1516.295386160083	59
1	8095	1517.3995506775	60
1	8117	1522.686640767967	59
1	8118	1523.790805285384	60
1	8174	1535.122292421251	59
1	8178	1535.846061647024	58
1	8179	1536.226456938668	59
1	8181	1537.330621456085	60
1	8184	1537.443875298995	59
1	8185	1538.548039816412	60
1	8190	1538.814249762168	59
1	8196	1539.918414279585	60
1	8201	1540.694485983068	59
1	8208	1541.798650500485	60
1	8214	1542.237316254908	59
1	8223	1543.341480772325	60
1	8272	1552.676240728742	59
1	8278	1553.780405246159	60
1	8281	1555.14351402213	59
1	8282	1556.247678539547	60
1	8287	1557.181605981269	59
1	8290	1558.285770498686	60
1	8303	1560.417475166875	59
1	8307	1561.521639684292	60
1	8310	1562.297711387775	59
1	8315	1563.401875905192	60
1	8332	1567.46091095196	59
1	8338	1568.211262761278	58
1	8342	1568.565075469377	59
1	8352	1569.669239986794	60
1	8364	1572.254351907873	59
1	8365	1573.35851642529	60
1	8374	1575.449979211815	59
1	8383	1576.554143729232	60
1	8390	1578.645606515757	59
1	8393	1579.240919541287	58
1	8394	1579.749771033174	59
1	8403	1580.853935550591	60
1	8430	1585.604578085366	59
1	8434	1586.708742602783	60
1	8453	1590.270576321296	59
1	8459	1591.374740838713	60
1	8464	1591.99583269325	59
1	8465	1593.099997210667	60
1	8476	1595.191459997192	59
1	8478	1596.295624514609	60
1	8490	1598.387087301134	59
1	8493	1599.491251818551	60
1	8499	1600.267323522034	59
1	8507	1601.371488039451	60
1	8544	1606.614878428146	59
1	8551	1607.719042945563	60
1	8555	1607.99386661045	59
1	8556	1609.098031127867	60
1	8613	1621.298690980307	59
1	8614	1622.402855497724	60
1	8619	1623.178927201207	59
1	8623	1623.359546661323	58
1	8627	1624.283091718624	59
1	8630	1624.494318284249	58
1	8631	1625.387256236041	59
1	8635	1626.09213193622	58
1	8638	1626.491420753458	59
1	8644	1627.595585270875	60
1	8655	1629.215087983472	59
1	8660	1630.319252500889	60
1	8677	1632.483386544104	59
1	8680	1633.587551061521	60
1	8685	1634.363622765004	59
1	8689	1634.389203441332	58
1	8690	1635.467787282421	59
1	8694	1636.571951799838	60
1	8732	1643.668082107901	59
1	8735	1644.772246625318	60
1	8782	1656.263935521293	59
1	8785	1656.44851700135	58
1	8789	1657.36810003871	59
1	8797	1658.472264556127	60
1	8814	1662.655190129177	59
1	8818	1663.759354646594	60
1	8834	1667.139473083631	59
1	8837	1667.478173781359	58
1	8841	1668.243637601048	59
1	8848	1669.347802118465	60
1	8857	1671.43926490499	59
1	8862	1672.543429422407	60
1	8885	1676.524507075791	59
1	8893	1677.628671593208	60
1	8941	1689.537487341377	59
1	8946	1690.641651858794	60
1	8956	1692.475036990486	59
1	8964	1693.579201507903	60
1	8978	1697.01571664945	59
1	8987	1698.119881166867	60
1	8990	1698.89595287035	59
1	8993	1699.111617161291	58
1	8997	1700.000117387767	59
1	9006	1700.709430813262	58
1	9007	1701.104281905184	59
1	9013	1702.208446422601	60
1	9021	1702.984518126084	59
1	9025	1704.088682643501	60
1	9068	1712.070736723473	59
1	9074	1713.17490124089	60
1	9087	1716.969172972843	59
1	9088	1718.07333749026	60
1	9091	1718.849409193743	59
1	9095	1719.615926204776	58
1	9096	1719.95357371116	59
1	9098	1721.057738228577	60
1	9106	1721.83380993206	59
1	9112	1722.626457681404	58
1	9116	1722.937974449477	59
1	9123	1724.042138966894	60
1	9155	1732.524856361303	59
1	9163	1733.62902087872	60
1	9167	1733.656114461413	59
1	9173	1734.76027897883	60
1	9183	1736.358092630801	59
1	9187	1737.462257148218	60
1	9196	1742.216135760102	59
1	9205	1743.320300277519	60
1	9208	1744.096371981002	59
1	9218	1744.685771241422	58
1	9219	1745.200536498419	59
1	9226	1746.304701015836	60
1	9252	1753.356252803918	59
1	9253	1754.460417321335	60
1	9264	1755.715428021431	59
1	9267	1756.819592538848	60
1	9270	1757.487672722062	59
1	9271	1758.591837239479	60
1	9297	1763.878927329946	59
1	9301	1764.983091847363	60
1	9306	1765.476740981917	59
1	9315	1766.580905499334	60
1	9325	1766.74508480144	59
1	9333	1767.849249318857	60
1	9365	1776.661436545714	59
1	9366	1777.765601063131	60
1	9375	1778.259250197685	59
1	9379	1779.363414715102	60
1	9421	1786.327214573021	59
1	9426	1787.431379090438	60
1	9451	1792.441119789782	59
1	9452	1793.545284307199	60
1	9471	1799.834055141467	59
1	9477	1800.938219658884	60
1	9511	1808.808041741516	59
1	9512	1809.912206258933	60
1	9519	1810.405855393487	59
1	9529	1811.510019910904	60
1	9535	1812.003669045458	59
1	9543	1813.107833562875	60
1	9561	1816.797110001371	59
1	9562	1817.901274518788	60
1	9584	1821.887534426111	59
1	9587	1821.893368701485	58
1	9591	1822.991698943528	59
1	9601	1824.095863460945	60
1	9622	1828.278789033995	59
1	9629	1829.382953551412	60
1	9634	1829.876602685966	59
1	9635	1830.980767203383	60
1	9644	1832.923025481494	59
1	9648	1834.027189998911	60
1	9679	1839.358637310068	59
1	9687	1840.462801827485	60
1	9708	1847.375564062996	59
1	9709	1848.479728580413	60
1	9713	1848.973377714967	59
1	9714	1850.077542232384	60
1	9719	1850.853613935867	59
1	9725	1851.957778453284	60
1	9736	1854.982339041512	59
1	9746	1856.086503558929	60
1	9764	1858.880707147775	59
1	9771	1859.984871665192	60
1	9791	1863.674148103688	59
1	9792	1864.778312621105	60
1	9827	1876.548350854726	59
1	9832	1877.652515372143	60
1	9875	1888.071309381539	59
1	9876	1889.175473898956	60
1	9885	1890.773287550927	59
1	9889	1891.877452068344	60
1	9895	1892.371101202898	59
1	9902	1893.475265720315	60
1	9908	1894.251337423798	59
1	9915	1895.355501941215	60
1	9935	1898.551129245157	59
1	9939	1899.655293762574	60
1	9944	1900.148942897128	59
1	9950	1901.253107414545	60
1	9987	1908.310136957915	59
1	9988	1909.414301475332	60
1	9994	1910.190373178815	59
1	9997	1911.294537696232	60
1	10051	1917.916916267231	59
1	10053	1919.021080784648	60
1	10057	1919.514729919202	59
1	10058	1920.618894436619	60
1	10063	1921.160279721566	59
1	10066	1922.264444238983	60
1	10088	1925.704770047467	59
1	10094	1926.808934564884	60
1	10097	1927.302583699438	59
1	10099	1927.585006268367	58
1	10103	1928.406748216855	59
1	10114	1929.510912734272	60
1	10120	1932.189936501575	59
1	10131	1933.294101018992	60
1	10137	1934.295935552923	59
1	10141	1935.40010007034	60
1	10157	1937.948580432971	59
1	10160	1939.052744950388	60
1	10177	1943.219593281584	59
1	10180	1944.323757799001	60
1	10202	1949.281545369079	59
1	10206	1950.385709886496	60
1	10226	1954.074986324992	59
1	10230	1955.179150842409	60
1	10275	1965.278906841602	59
1	10279	1966.383071359019	60
1	10288	1968.218231313362	59
1	10297	1969.322395830779	60
1	10305	1970.098467534262	59
1	10308	1970.663907149093	58
1	10309	1971.202632051679	59
1	10312	1972.261720801064	58
1	10313	1972.306796569096	59
1	10316	1973.410961086513	60
1	10319	1973.859534453035	59
1	10320	1974.963698970452	60
1	10327	1975.457348105006	59
1	10334	1976.561512622423	60
1	10375	1983.446416364861	59
1	10379	1984.550580882278	60
1	10396	1987.33822040162	59
1	10401	1988.442384919037	60
1	10409	1990.445706599149	59
1	10412	1990.818440868688	58
1	10416	1991.549871116566	59
1	10425	1992.654035633983	60
1	10428	1993.430107337466	59
1	10440	1994.534271854883	60
1	10448	1995.239147555062	59
1	10449	1996.343312072479	60
1	10453	1996.836961207033	59
1	10454	1997.94112572445	60
1	10458	1998.367877181629	59
1	10460	1998.434774859004	58
1	10464	1999.472041699046	59
1	10472	2000.576206216463	60
1	10493	2003.014509492833	59
1	10500	2004.11867401025	60
1	10506	2004.826029466888	59
1	10507	2005.930193984305	60
1	10513	2006.706265687788	59
1	10519	2007.810430205205	60
1	10523	2009.397533961638	59
1	10528	2010.501698479055	60
1	10540	2013.418650424014	59
1	10552	2014.522814941431	60
1	10555	2015.298886644914	59
1	10562	2016.403051162331	60
1	10585	2020.427190741647	59
1	10588	2021.531355259064	60
1	10618	2028.105120319979	59
1	10622	2029.209284837396	60
1	10625	2030.072568584779	59
1	10626	2031.176733102196	60
1	10632	2031.952804805679	59
1	10638	2033.056969323096	60
1	10700	2042.486504301665	59
1	10704	2043.590668819082	60
1	10709	2045.188482471053	59
1	10714	2046.29264698847	60
1	10717	2046.786296123024	59
1	10723	2047.890460640441	60
1	10726	2048.384109774995	59
1	10729	2049.488274292412	60
1	10735	2050.264345995895	59
1	10741	2051.368510513312	60
1	10769	2056.164518219107	59
1	10773	2057.268682736524	60
1	10776	2058.044754440007	59
1	10782	2058.619069534666	58
1	10789	2059.148918957424	59
1	10796	2060.253083474841	60
1	10800	2060.453918794648	59
1	10801	2061.558083312065	60
1	10814	2064.545817861683	59
1	10818	2065.6499823791	60
1	10837	2072.169448709816	59
1	10841	2073.273613227233	60
1	10858	2075.575474641692	59
1	10861	2076.679639159109	60
1	10884	2081.219279089992	59
1	10889	2081.756330621642	58
1	10892	2082.323443607409	59
1	10896	2083.354144273613	58
1	10897	2083.427608124826	59
1	10899	2084.531772642243	60
1	10909	2086.549771577555	59
1	10912	2086.605131421701	58
1	10913	2087.653936094972	59
1	10918	2088.758100612389	60
1	10952	2093.934438483258	59
1	10959	2095.038603000675	60
1	10964	2096.136653489381	59
1	10965	2097.240818006798	60
1	10969	2097.63478820171	59
1	10976	2098.738952719127	60
1	10983	2099.651100942987	59
1	10986	2100.755265460404	60
1	10989	2101.531337163887	59
1	10991	2102.635501681304	60
1	10995	2103.819488645318	59
1	11003	2104.923653162735	60
1	11060	2115.005876188903	59
1	11067	2116.11004070632	60
1	11073	2117.045734032539	59
1	11076	2118.149898549956	60
1	11079	2118.925970253439	59
1	11084	2120.030134770856	60
1	11109	2126.419698200644	59
1	11113	2127.523862718061	60
1	11150	2133.387315863752	59
1	11153	2134.491480381169	60
1	11157	2134.985129515723	59
1	11160	2136.08929403314	60
1	11163	2136.582943167694	59
1	11165	2136.865365736623	58
1	11170	2137.687107685111	59
1	11174	2138.791272202528	60
1	11222	2149.308137826001	59
1	11230	2150.412302343418	60
1	11233	2150.905951477972	59
1	11234	2152.010115995389	60
1	11238	2152.503765129943	59
1	11242	2153.60792964736	60
1	11253	2155.699392433885	59
1	11256	2156.803556951302	60
1	11297	2163.812728881764	59
1	11300	2164.916893399181	60
1	11309	2166.670381675598	59
1	11314	2167.774546193015	60
1	11320	2169.229633301195	59
1	11321	2170.333797818612	60
1	11327	2171.109869522095	59
1	11339	2172.214034039512	60
1	11395	2184.854367473683	59
1	11402	2185.872042441782	58
1	11403	2185.9585319911	59
1	11406	2186.624266390747	58
1	11407	2187.062696508517	59
1	11412	2188.166861025934	60
1	11415	2188.660510160488	59
1	11418	2188.942932729417	58
1	11420	2189.764674677905	59
1	11423	2190.258323812459	58
1	11426	2190.868839195322	59
1	11428	2191.973003712739	60
1	11454	2195.662280151235	59
1	11455	2196.766444668652	60
1	11459	2196.901699221791	59
1	11461	2197.260093803206	58
1	11463	2197.542516372135	57
1	11466	2198.005863739208	58
1	11474	2199.110028256625	59
1	11479	2200.214192774042	60
1	11498	2203.038353271768	59
1	11505	2204.142517789185	60
1	11539	2212.716216025075	59
1	11540	2213.820380542492	60
1	11567	2218.961012781809	59
1	11573	2220.065177299226	60
1	11590	2221.222339069853	59
1	11594	2222.32650358727	60
1	11616	2229.990669561818	59
1	11618	2230.110849114627	58
1	11621	2231.094834079235	59
1	11623	2232.198998596652	60
1	11628	2232.975070300135	59
1	11633	2234.079234817552	60
1	11636	2234.758357690278	59
1	11637	2235.862522207695	60
1	11685	2242.471689270446	59
1	11691	2243.575853787863	60
1	11709	2249.042516769902	59
1	11713	2250.146681287319	60
1	11757	2261.262876945035	59
1	11761	2262.367041462452	60
1	11767	2263.079639901845	59
1	11778	2264.183804419262	60
1	11782	2264.900115293731	59
1	11793	2266.004279811148	60
1	11801	2268.095742597673	59
1	11803	2269.19990711509	60
1	11818	2273.597431838507	59
1	11824	2274.109296681854	58
1	11827	2274.701596355924	59
1	11833	2275.805760873341	60
1	11855	2281.323974926923	59
1	11856	2282.42813944434	60
1	11859	2282.921788578894	59
1	11863	2284.025953096311	60
1	11872	2284.621165087926	59
1	11874	2284.802024799794	58
1	11884	2285.723639124295	57
1	11885	2285.725329605343	58
1	11892	2286.82949412276	59
1	11902	2287.933658640177	60
1	11942	2296.168610241872	59
1	11944	2296.845734169753	58
1	11945	2297.272774759289	59
1	11953	2298.376939276706	60
1	11956	2298.443547821724	59
1	11957	2299.547712339141	60
1	11979	2305.475226121361	59
1	11983	2306.579390638778	60
1	12016	2309.77501794272	59
1	12020	2310.879182460137	60
1	12053	2318.22792380189	59
1	12058	2318.681828214358	58
1	12059	2319.332088319307	59
1	12064	2320.436252836724	60
1	12091	2326.670896474213	59
1	12092	2327.77506099163	60
1	12095	2328.268710126184	59
1	12105	2329.257580581899	58
1	12106	2329.372874643601	59
1	12114	2329.821584198578	58
1	12115	2330.477039161018	59
1	12118	2330.682416053659	58
1	12119	2331.581203678435	59
1	12124	2332.357275381918	58
1	12126	2332.685368195852	59
1	12134	2333.789532713269	60
1	12164	2340.287237361908	59
1	12168	2341.391401879325	60
1	12174	2341.867111617456	59
1	12180	2342.971276134873	60
1	12186	2343.464925269427	59
1	12187	2344.569089786844	60
1	12208	2348.510239656448	59
1	12213	2349.614404173865	60
1	12216	2349.856179877311	59
1	12220	2350.960344394728	60
1	12240	2353.051807181253	59
1	12246	2354.15597169867	60
1	12285	2362.346550921926	59
1	12292	2363.450715439343	60
1	12324	2370.865727483014	59
1	12325	2371.969892000431	60
1	12333	2373.376207701935	59
1	12339	2374.480372219352	60
1	12343	2375.02200330923	59
1	12349	2376.126167826647	60
1	12355	2376.90223953013	59
1	12360	2377.239006634994	58
1	12362	2378.006404047547	59
1	12367	2379.110568564964	60
1	12400	2385.699953201106	59
1	12405	2386.804117718523	60
1	12408	2387.297766853077	59
1	12411	2388.401931370494	60
1	12417	2388.895580505048	59
1	12418	2389.999745022465	60
1	12438	2395.435521261953	59
1	12445	2396.53968577937	60
1	12454	2397.622212864556	59
1	12456	2398.137499431341	58
1	12458	2398.726377381973	59
1	12463	2399.83054189939	60
1	12491	2406.126567691196	59
1	12495	2407.230732208613	60
1	12505	2407.724381343167	59
1	12510	2408.828545860584	60
1	12537	2417.494834821971	59
1	12541	2418.598999339388	60
1	12552	2420.196812991359	59
1	12556	2420.222422419882	58
1	12568	2421.300977508776	59
1	12579	2422.405142026193	60
1	12598	2425.600769330135	59
1	12599	2426.704933847552	60
1	12603	2428.52449160198	59
1	12607	2429.628656119397	60
1	12623	2431.839664144728	59
1	12624	2432.943828662145	60
1	12653	2439.554148381989	59
1	12655	2440.444259841222	58
1	12657	2440.658312899406	59
1	12664	2441.762477416823	60
1	12671	2442.822631975208	59
1	12675	2443.639887145164	58
1	12677	2443.926796492625	59
1	12680	2445.030961010042	60
1	12703	2450.583805161998	59
1	12704	2451.687969679415	60
1	12710	2453.285783331386	59
1	12715	2454.389947848803	60
1	12725	2456.241079278803	59
1	12729	2457.34524379622	60
1	12732	2458.121315499703	59
1	12739	2459.22548001712	60
1	12755	2461.613461942007	59
1	12757	2462.421107321062	58
1	12758	2462.717626459424	59
1	12766	2463.821790976841	60
1	12791	2466.767333438665	59
1	12802	2467.871497956082	60
1	12840	2476.619882191531	59
1	12845	2477.724046708948	60
1	12869	2483.672775502025	59
1	12870	2484.776940019442	60
1	12914	2494.702432282034	59
1	12916	2494.803867989616	58
1	12918	2495.806596799451	59
1	12920	2496.910761316868	60
1	12958	2500.875643190745	59
1	12961	2501.979807708162	60
1	12967	2505.732089062043	59
1	12971	2506.83625357946	60
1	12974	2508.424978547459	59
1	12980	2509.529143064876	60
1	12985	2510.305214768359	59
1	12992	2510.623260641186	58
1	12996	2511.409379285776	59
1	12999	2511.620605851401	58
1	13000	2512.513543803193	59
1	13004	2513.218419503372	58
1	13005	2513.61770832061	59
1	13008	2514.721872838027	60
1	13027	2516.761745842052	59
1	13030	2517.865910359469	60
1	13059	2522.805301415198	59
1	13060	2523.909465932615	60
1	13066	2524.403115067169	59
1	13067	2525.507279584586	60
1	13071	2526.00092871914	59
1	13072	2527.105093236557	60
1	13114	2533.237549544858	59
1	13120	2534.341714062275	60
1	13141	2538.82105940207	59
1	13144	2539.925223919487	60
1	13173	2544.422245108655	59
1	13174	2545.526409626072	60
1	13178	2546.020058760626	59
1	13179	2547.124223278043	60
1	13193	2549.355825383871	59
1	13197	2549.850716182079	58
1	13201	2550.459989901288	59
1	13203	2551.564154418705	60
1	13207	2551.911561271339	59
1	13210	2553.015725788756	60
1	13227	2555.823679751838	59
1	13229	2556.211353092698	58
1	13233	2556.927844269255	59
1	13238	2557.703915972738	58
1	13240	2558.032008786672	59
1	13246	2559.136173304089	60
1	13254	2560.880372962088	59
1	13258	2561.227636090614	58
1	13259	2561.984537479505	59
1	13266	2563.088701996922	60
1	13269	2563.864773700405	59
1	13274	2564.968938217822	60
1	13308	2571.015389852288	59
1	13311	2571.910029742097	58
1	13312	2572.119554369705	59
1	13314	2573.223718887122	60
1	13334	2578.003510905667	59
1	13345	2579.107675423084	60
1	13373	2584.902055031553	59
1	13383	2586.00621954897	60
1	13404	2593.969343302115	59
1	13408	2595.073507819532	60
1	13412	2595.398143995219	59
1	13415	2596.502308512636	60
1	13420	2597.278380216119	59
1	13428	2598.382544733536	60
1	13440	2601.02409886249	59
1	13443	2602.128263379907	60
1	13446	2602.257294910204	59
1	13454	2602.90433508339	58
1	13456	2603.361459427621	59
1	13463	2603.680406786873	58
1	13467	2604.465623945038	59
1	13473	2604.999000082124	58
1	13476	2605.569788462455	59
1	13482	2606.673952979872	60
1	13495	2610.337476590915	59
1	13499	2611.441641108332	60
1	13502	2611.935290242886	59
1	13505	2613.039454760303	60
1	13522	2616.028656862133	59
1	13528	2617.13282137955	60
1	13553	2622.091768576211	59
1	13557	2623.195933093628	60
1	13573	2627.058313642142	59
1	13574	2628.162478159559	60
1	13590	2632.016347789409	59
1	13597	2633.120512306826	60
1	13624	2638.087970422151	59
1	13629	2638.884726719099	58
1	13630	2639.192134939568	59
1	13635	2640.296299456985	60
1	13638	2640.48254037107	59
1	13641	2641.072371160468	58
1	13643	2641.586704888487	59
1	13645	2642.690869405904	60
1	13673	2647.582043263875	59
1	13674	2648.686207781292	60
1	13678	2649.11762720216	59
1	13682	2649.462279484775	58
1	13684	2650.221791719577	59
1	13686	2651.325956236994	60
1	13689	2651.819605371548	59
1	13694	2652.923769888965	60
1	13709	2655.01523267549	59
1	13717	2656.119397192907	60
1	13746	2662.165848827373	59
1	13749	2663.27001334479	60
1	13783	2671.176940762178	59
1	13792	2672.281105279595	60
1	13803	2675.447106099467	59
1	13804	2676.551270616884	60
1	13833	2681.838360707351	59
1	13836	2682.206597542187	58
1	13837	2682.942525224768	59
1	13840	2683.436174359322	58
1	13843	2684.046689742185	59
1	13848	2685.150854259602	60
1	13861	2688.697511622336	59
1	13867	2689.801676139753	60
1	13870	2690.352631488571	59
1	13878	2691.424937083794	58
1	13879	2691.456796005988	59
1	13886	2691.950445140542	58
1	13887	2692.560960523405	59
1	13897	2693.236254322196	58
1	13900	2693.665125040822	59
1	13905	2694.441196744305	58
1	13907	2694.769289558239	59
1	13913	2695.873454075656	60
1	13916	2696.743886096455	59
1	13918	2697.848050613872	60
1	13939	2701.537327052368	59
1	13942	2702.641491569785	60
1	13946	2703.135140704339	59
1	13947	2704.239305221756	60
1	13951	2704.265911102205	59
1	13958	2705.370075619622	60
1	13964	2706.967889271593	59
1	13966	2708.07205378901	60
1	13969	2708.565702923564	59
1	13972	2709.669867440981	60
1	13998	2712.865494744923	59
1	13999	2713.96965926234	60
1	14004	2714.02514663912	59
1	14006	2714.463308396894	58
1	14008	2715.129311156537	59
1	14013	2715.295567882214	58
1	14019	2716.233475673954	59
1	14023	2717.337640191371	60
1	14043	2722.92027296385	59
1	14046	2724.024437481267	60
1	14059	2725.857892166859	59
1	14065	2726.962056684276	60
1	14071	2727.738128387759	59
1	14075	2728.842292905176	60
1	14104	2734.10363016819	59
1	14107	2735.207794685607	60
1	14113	2735.701443820161	59
1	14119	2736.805608337578	60
1	14123	2737.354881442232	59
1	14127	2737.581680041061	58
1	14132	2738.459045959649	59
1	14136	2739.563210477066	60
1	14139	2741.073994176941	59
1	14144	2742.178158694358	60
1	14153	2744.269621480883	59
1	14157	2745.3737859983	60
1	14183	2749.379669162806	59
1	14190	2750.483833680223	60
1	14196	2750.977482814777	59
1	14199	2752.081647332194	60
1	14205	2752.575296466748	59
1	14206	2753.679460984165	60
1	14211	2754.455532687648	59
1	14215	2755.559697205065	60
1	14227	2758.755324509007	59
1	14236	2759.41419500225	58
1	14240	2759.859489026424	59
1	14244	2760.647158345963	58
1	14245	2760.963653543841	59
1	14247	2762.067818061258	60
1	14252	2762.843889764741	59
1	14256	2763.948054282158	60
1	14289	2768.636226605818	59
1	14299	2769.740391123235	60
1	14308	2770.443851782259	59
1	14314	2771.548016299676	60
1	14320	2773.084864588313	59
1	14321	2774.18902910573	60
1	14327	2778.041791435515	59
1	14333	2779.145955952932	60
1	14343	2781.473508562268	59
1	14353	2782.577673079685	60
1	14362	2784.175486731656	59
1	14365	2784.925898810488	58
1	14370	2785.279651249073	59
1	14376	2786.38381576649	60
1	14379	2787.371114035598	59
1	14386	2788.475278553015	60
1	14389	2789.251350256498	59
1	14396	2790.355514773915	60
1	14419	2795.436424525067	59
1	14422	2796.540589042484	60
1	14446	2803.109884608573	59
1	14453	2804.21404912599	60
1	14457	2804.425984860424	59
1	14460	2805.530149377841	60
1	14469	2806.306221081324	59
1	14476	2807.410385598741	60
1	14509	2814.562478902295	59
1	14510	2815.666643419712	60
1	14539	2824.181322314218	59
1	14543	2825.285486831635	60
1	14549	2825.592135682304	59
1	14553	2826.696300199721	60
1	14593	2836.621792462313	59
1	14599	2837.72595697973	60
1	14630	2845.314261856831	59
1	14643	2846.418426374248	60
1	14649	2846.912075508802	59
1	14659	2848.016240026219	60
1	14728	2861.679211255258	59
1	14731	2862.783375772675	60
1	14774	2872.226613526402	59
1	14778	2873.330778043819	60
1	14782	2873.712273428051	59
1	14786	2874.662072567296	58
1	14788	2874.816437945468	59
1	14794	2875.920602462885	60
1	14801	2878.01206524941	59
1	14803	2879.116229766827	60
1	14814	2880.740419582349	59
1	14821	2881.844584099766	60
1	14876	2894.826823081728	59
1	14883	2895.930987599145	60
1	14886	2896.303066372685	59
1	14891	2896.707059302628	58
1	14893	2897.407230890102	59
1	14898	2898.511395407519	60
1	14915	2902.799733142367	59
1	14921	2903.903897659784	60
1	14937	2907.567421270827	59
1	14938	2908.671585788244	60
1	14941	2909.165234922798	59
1	14944	2910.269399440215	60
1	14947	2911.045471143698	59
1	14952	2912.149635661115	60
1	14963	2913.829389922376	59
1	14974	2914.933554439793	60
1	14989	2916.462292612628	59
1	14992	2917.427032637054	58
1	14993	2917.566457130045	59
1	14996	2918.060106264599	58
1	14997	2918.670621647462	59
1	15000	2919.446693350945	58
1	15002	2919.774786164879	59
1	15005	2920.878950682296	60
1	15023	2924.568227120792	59
1	15028	2924.859046702385	58
1	15029	2925.672391638209	59
1	15033	2926.166040772763	58
1	15034	2926.776556155626	59
1	15039	2927.880720673043	60
1	15044	2928.656792376526	59
1	15053	2929.760956893943	60
1	15058	2930.959481728676	59
1	15060	2932.063646246093	60
1	15063	2932.557295380647	59
1	15070	2933.661459898064	60
1	15086	2935.888703482394	59
1	15089	2936.992867999811	60
1	15099	2939.223718252044	59
1	15104	2940.327882769461	60
1	15144	2948.865598832414	59
1	15147	2949.969763349831	60
1	15154	2950.463412484385	59
1	15156	2951.567577001802	60
1	15175	2957.948017042412	59
1	15179	2959.052181559829	60
1	15190	2960.6499952118	59
1	15197	2961.754159729217	60
1	15202	2962.247808863771	59
1	15210	2963.351973381188	60
1	15219	2964.128045084671	59
1	15225	2965.232209602088	60
1	15241	2968.977673822421	59
1	15250	2970.081838339838	60
1	15256	2970.847643970676	59
1	15259	2971.951808488093	60
1	15263	2972.445457622647	59
1	15264	2973.549622140064	60
1	15323	2985.227661303032	59
1	15328	2986.331825820449	60
1	15339	2987.107897523932	59
1	15341	2988.212062041349	60
1	15344	2988.622308868435	59
1	15345	2989.726473385852	60
1	15389	3002.066644162448	59
1	15401	3003.170808679865	60
1	15404	3003.955470335996	59
1	15411	3005.059634853413	60
1	15414	3005.553283987967	59
1	15417	3006.657448505384	60
1	15421	3007.151097639938	59
1	15428	3008.255262157355	60
1	15513	3026.015292671738	59
1	15516	3027.119457189155	60
1	15594	3044.580309776806	59
1	15595	3045.684474294223	60
1	15606	3047.658604323571	59
1	15615	3048.762768840988	60
1	15621	3050.022846923483	59
1	15624	3051.1270114409	60
1	15633	3053.02828996901	59
1	15638	3054.132454486427	60
1	15666	3058.92589544234	59
1	15676	3060.030059959757	60
1	15699	3068.244584842502	59
1	15700	3069.348749359919	60
1	15730	3075.628499524336	59
1	15733	3076.732664041753	60
1	15738	3077.508735745236	59
1	15745	3078.612900262653	60
1	15775	3082.992632896307	59
1	15778	3084.096797413724	60
1	15790	3090.30389840252	59
1	15792	3091.145187047451	58
1	15793	3091.408062919937	59
1	15795	3092.512227437354	60
1	15801	3093.005876571908	59
1	15807	3093.288299140837	58
1	15811	3094.110041089325	59
1	15817	3095.214205606742	60
1	15846	3099.668840282334	59
1	15847	3100.773004799751	60
1	15850	3101.266653934305	59
1	15853	3101.333555182529	58
1	15854	3102.370818451722	59
1	15858	3102.864467586276	58
1	15859	3103.474982969139	59
1	15866	3104.579147486556	60
1	15871	3105.355219190039	59
1	15875	3106.459383707456	60
1	15888	3109.25572219416	59
1	15889	3110.359886711577	60
1	15901	3112.363211962538	59
1	15904	3113.467376479955	60
1	15910	3114.049163150073	59
1	15911	3115.15332766749	60
1	15938	3118.842604105986	59
1	15940	3119.946768623403	60
1	15965	3123.392868742547	59
1	15974	3124.497033259964	60
1	15979	3125.23385871387	59
1	15980	3126.338023231287	60
1	15987	3126.831672365841	59
1	15990	3127.935836883258	60
1	16003	3131.625113321754	59
1	16005	3132.729277839171	60
1	16021	3134.422525522556	59
1	16025	3134.820740625696	58
1	16026	3135.526690039973	59
1	16032	3136.418554277667	58
1	16034	3136.63085455739	59
1	16037	3137.735019074807	60
1	16067	3143.429128190314	59
1	16073	3144.533292707731	60
1	16078	3145.309364411214	59
1	16086	3146.005436189493	58
1	16087	3146.413528928631	59
1	16094	3147.517693446048	60
1	16142	3154.280589169752	59
1	16146	3155.384753687169	60
1	16150	3156.481839082574	59
1	16154	3157.586003599991	60
1	16177	3162.379444555904	59
1	16178	3163.483609073321	60
1	16194	3166.02933774564	59
1	16195	3167.133502263057	60
1	16229	3171.675222259304	59
1	16236	3172.779386776721	60
1	16239	3173.659483479234	59
1	16243	3174.763647996651	60
1	16260	3178.541152642592	59
1	16264	3179.128698476753	58
1	16265	3179.645317160009	59
1	16267	3180.749481677426	60
1	16291	3184.438758115922	59
1	16295	3185.542922633339	60
1	16313	3189.232199071835	59
1	16320	3190.336363589252	60
1	16363	3200.60046620261	59
1	16364	3201.704630720027	60
1	16378	3204.900258023969	59
1	16386	3206.004422541386	60
1	16389	3206.49807167594	59
1	16392	3207.602236193357	60
1	16396	3208.095885327911	59
1	16397	3209.200049845328	60
1	16413	3211.630122982619	59
1	16419	3212.734287500036	60
1	16482	3226.629500138119	59
1	16487	3227.733664655536	60
1	16501	3229.857954640939	59
1	16504	3230.962119158356	60
1	16522	3233.829966411618	59
1	16527	3234.934130929035	60
1	16530	3235.710202632518	59
1	16537	3236.814367149935	60
1	16570	3243.67351806492	59
1	16574	3244.777682582337	60
1	16605	3253.935156757592	59
1	16609	3255.039321275009	60
1	16616	3256.394201398195	59
1	16627	3257.498365915612	60
1	16637	3258.274437619095	59
1	16644	3259.378602136512	60
1	16674	3264.38326965805	59
1	16675	3265.487434175467	60
1	16678	3265.981083310021	59
1	16681	3266.778406882664	58
1	16682	3267.085247827438	59
1	16686	3267.578896961992	58
1	16687	3268.189412344855	59
1	16691	3269.293576862272	60
1	16696	3270.069648565755	59
1	16701	3270.774524265934	58
1	16706	3271.173813083172	59
1	16711	3272.277977600589	60
1	16742	3277.808063662673	59
1	16747	3278.91222818009	60
1	16751	3279.03038552227	59
1	16754	3280.134550039687	60
1	16765	3280.91062174317	59
1	16769	3282.014786260587	60
1	16772	3282.237491423687	59
1	16774	3283.341655941104	60
1	16777	3283.835305075658	59
1	16785	3284.939469593075	60
1	16816	3291.183467577299	59
1	16820	3292.287632094716	60
1	16825	3293.063703798199	59
1	16831	3294.077501156868	58
1	16833	3294.167868315616	59
1	16838	3295.272032833033	60
1	16847	3297.363495619558	59
1	16851	3298.467660136975	60
1	16873	3301.630595077596	59
1	16876	3302.734759595013	60
1	16906	3310.8970340027	59
1	16913	3312.001198520117	60
1	16930	3315.798649003309	59
1	16935	3316.902813520726	60
1	16940	3317.39646265528	59
1	16948	3318.500627172697	60
1	16951	3319.775508499667	59
1	16952	3320.879673017084	60
1	17014	3332.956347562718	59
1	17021	3334.060512080135	60
1	17036	3337.256139384077	59
1	17037	3338.360303901494	60
1	17040	3338.853953036048	59
1	17041	3339.958117553465	60
1	17060	3343.986004342727	59
1	17064	3345.090168860144	60
1	17074	3347.81600482845	59
1	17085	3348.920169345867	60
1	17117	3354.244641455524	59
1	17120	3355.015661122736	58
1	17121	3355.348805972941	59
1	17125	3355.842455107495	58
1	17126	3356.452970490358	59
1	17133	3357.557135007775	60
1	17182	3369.368147850911	59
1	17195	3370.472312368328	60
1	17204	3372.563775154853	59
1	17205	3373.66793967227	60
1	17257	3387.416985747752	59
1	17263	3388.104631462763	58
1	17264	3388.521150265169	59
1	17269	3389.014799399723	58
1	17271	3389.297221968652	57
1	17273	3389.625314782586	58
1	17278	3390.612613051694	57
1	17279	3390.729479300003	58
1	17282	3391.83364381742	59
1	17286	3392.0314332989	58
1	17288	3392.210426703665	57
1	17290	3392.937808334837	58
1	17297	3394.041972852254	59
1	17302	3395.146137369671	60
1	17316	3397.003867659578	59
1	17317	3398.108032176995	60
1	17326	3400.19949496352	59
1	17332	3401.303659480937	60
1	17352	3404.992935919433	59
1	17354	3406.09710043685	60
1	17378	3410.163945022781	59
1	17384	3411.268109540198	60
1	17399	3414.46373684414	59
1	17402	3414.631642854226	58
1	17403	3415.567901361557	59
1	17406	3416.061550496111	58
1	17408	3416.34397306504	57
1	17410	3416.672065878974	58
1	17413	3417.776230396391	59
1	17422	3418.880394913808	60
1	17462	3425.739545828793	59
1	17470	3426.84371034621	60
1	17488	3430.532986784706	59
1	17491	3431.637151302123	60
1	17500	3432.223258582799	59
1	17502	3432.911894949524	58
1	17504	3433.327423100216	59
1	17511	3434.431587617633	60
1	17569	3445.429103446375	59
1	17578	3446.533267963792	60
1	17585	3447.735165383267	59
1	17586	3448.839329900684	60
1	17589	3449.615401604167	59
1	17591	3450.719566121584	60
1	17605	3454.282572142817	59
1	17611	3455.386736660234	60
1	17614	3456.432481928043	59
1	17618	3457.53664644546	60
1	17622	3458.030295580014	59
1	17624	3459.134460097431	60
1	17656	3464.421550187898	59
1	17665	3465.312228922826	58
1	17666	3465.525714705315	59
1	17671	3466.019363839869	58
1	17672	3466.629879222732	59
1	17676	3467.734043740149	60
1	17682	3468.510115443632	59
1	17685	3469.214991143811	58
1	17687	3469.614279961049	59
1	17689	3470.718444478466	60
1	17716	3475.917359137718	59
1	17722	3476.341885702835	58
1	17723	3477.021523655135	59
1	17728	3478.125688172552	60
1	17744	3482.524431562371	59
1	17745	3483.628596079788	60
1	17754	3484.404667783271	59
1	17758	3485.508832300688	60
1	17806	3496.988796843363	59
1	17810	3498.09296136078	60
1	17817	3498.401199262853	59
1	17821	3499.50536378027	60
1	17827	3499.919064651923	59
1	17830	3501.02322916934	60
1	17841	3504.772701525581	59
1	17847	3505.876866042998	60
1	17871	3509.430856042862	59
1	17872	3510.535020560279	60
1	17893	3513.865934302853	59
1	17895	3514.97009882027	60
1	17929	3524.116209193391	59
1	17935	3525.220373710808	60
1	17949	3527.632690630856	59
1	17950	3528.736855148273	60
1	17963	3530.469316531973	59
1	17972	3531.49016960288	58
1	17973	3531.57348104939	59
1	17977	3532.677645566807	60
1	18008	3542.519826382889	59
1	18015	3543.623990900306	60
1	18039	3549.796901983687	59
1	18042	3550.232900186182	58
1	18046	3550.901066501104	59
1	18052	3552.005231018521	60
1	18059	3552.992529287629	59
1	18062	3553.549483162898	58
1	18066	3554.096693805046	59
1	18073	3554.872765508529	58
1	18075	3555.200858322463	59
1	18078	3556.188156591571	58
1	18079	3556.30502283988	59
1	18081	3557.409187357297	60
1	18094	3559.383783895513	59
1	18096	3560.48794841293	60
1	18111	3562.579411199455	59
1	18114	3563.683575716872	60
1	18119	3564.579139942907	59
1	18127	3565.683304460324	60
1	18145	3568.64659526314	59
1	18147	3569.750759780557	60
1	18168	3573.440036219053	59
1	18169	3574.54420073647	60
1	18215	3585.021273926228	59
1	18222	3586.125438443645	60
2	0	0	0
3	0	0	0
3	157	2	59
3	161	2	58
3	171	3.253010678553	57
3	179	3.597813651971	58
3	180	3.597813651971	59
3	187	4.065709959072	58
3	192	4.701978169388	57
3	194	4.850824330524	58
3	196	5.195627303942	59
3	197	5.195627303942	60
3	200	5.663523611043	59
3	202	6.299791821359	60
3	205	6.448637982495	59
3	208	6.793440955913	60
3	210	7.261337263014	59
3	211	8.046451634466	60
3	213	8.859150914985	59
3	214	10.456964566956	60
3	217	10.697316544776	59
3	218	12.295130196747	60
3	227	13.399294714164	59
3	235	14.997108366135	60
3	247	19.394633089552	59
3	250	20.183985798085	58
3	251	20.992446741523	59
3	256	21.781799450056	60
3	262	22.245457420076	59
3	266	22.590260393494	60
3	278	23.610737065142	59
3	279	23.843271072047	60
3	292	24.947284771783	59
3	296	25.163478077435	58
3	297	25.208550717113	59
3	300	25.704374072743	58
3	304	26.051600106881	57
3	308	26.545098423754	58
3	311	26.761291729406	59
3	313	26.806364369084	60
3	319	27.302187724714	59
3	324	27.649413758852	60
3	327	28.091949634328	59
3	328	28.142912075725	60
3	332	28.359105381377	59
3	335	28.900001376685	60
3	340	29.689763286299	59
3	341	29.956919033348	60
3	344	30.356207850586	59
3	345	31.28757693827	60
3	350	31.954021502557	59
3	352	33.551835154528	60
3	363	36.789266179104	59
3	377	38.36797159617	58
3	380	38.387079831075	59
3	385	39.491244348492	58
3	388	39.965785248141	59
3	390	39.984893483046	60
3	396	40.68701533562	59
3	397	41.089058000463	60
3	400	41.218795926694	59
3	402	41.563598900112	60
3	406	42.19322251788	59
3	408	42.284828987591	60
3	412	42.816609578665	59
3	417	43.791036169851	60
3	419	44.414423230636	59
3	423	45.48658272388	58
3	425	46.012236882607	59
3	432	47.084396375851	60
3	440	47.610050534578	59
3	459	49.207864186549	60
3	461	49.292725410685	59
3	465	50.068797114168	58
3	469	50.890539062656	59
3	474	51.666610766139	60
3	477	52.488352714627	59
3	478	54.086166366598	60
3	481	54.183899268656	59
3	482	55.781712920627	60
3	486	56.551957394255	59
3	488	57.03472359918	58
3	493	58.149771046226	59
3	499	58.252448417462	58
3	501	58.617667353327	57
3	503	58.632537251151	58
3	506	58.666367468806	57
3	512	59.747584698197	58
3	514	59.850262069433	59
3	520	60.215481005298	60
3	524	60.215481005298	59
3	526	60.230350903122	60
3	528	60.264181120777	59
3	540	61.345398350168	60
3	543	61.448075721404	59
3	544	61.813294657269	60
3	546	61.861994772748	59
3	555	62.881215813432	58
3	556	63.045889373375	59
3	558	63.459808424719	60
3	560	64.479029465403	59
3	562	64.563972942136	58
3	564	64.643703025346	59
3	565	66.076843117374	60
3	567	66.161786594107	59
3	568	66.241516677317	60
3	571	67.759600246078	59
3	576	69.282105197471	58
3	577	69.357413898049	59
3	585	70.268524973079	58
3	589	70.879918849442	59
3	591	70.95522755002	60
3	594	71.347815156543	59
3	596	71.398442317949	60
3	603	71.578532358208	59
3	604	71.86633862505	60
3	606	72.477732501413	59
3	611	72.945628808514	60
3	614	73.176346010179	59
3	624	74.075546153384	60
3	628	74.73594319234	59
3	629	74.77415966215	60
3	633	74.850739363367	59
3	637	76.027170340703	58
3	639	76.333756844311	59
3	641	76.448553015338	60
3	648	77.624983992674	59
3	649	77.931570496282	60
3	654	79.222797644645	59
3	657	79.37403067124	58
3	660	80.275848902984	57
3	668	80.820611296616	58
3	669	80.971844323211	59
3	673	81.145755933488	58
3	676	81.873662554955	59
3	684	82.418424948587	60
3	687	82.569657975182	59
3	688	82.743569585459	60
3	692	83.471476206926	59
3	695	84.167471627153	60
3	697	85.069289858897	59
3	698	86.667103510868	60
3	701	88.97316544776	59
3	705	90.570979099731	60
3	711	91.823989778284	59
3	725	92.743275597178	58
3	729	92.919928990425	57
3	732	93.421803430255	58
3	737	93.998651873275	59
3	739	94.341089249149	60
3	741	94.517742642396	59
3	745	95.019617082226	60
3	746	95.596465525246	59
3	750	96.115556294367	60
3	752	96.170026864235	59
3	753	97.194279177217	60
3	757	97.670481992536	59
3	758	97.767840516206	60
3	766	99.020851194759	59
3	768	99.268295644507	60
3	777	100.61866484673	59
3	783	102.216478498701	60
3	799	106.367798537312	59
3	800	107.965612189283	60
3	808	110.9500129276	59
3	811	111.10391478851	58
3	815	112.547826579571	59
3	817	112.701728440481	60
3	827	114.145640231542	59
3	839	115.065115082088	58
3	841	115.468944083731	57
3	848	115.743453883513	58
3	852	116.598861428601	59
3	854	116.662928734059	60
3	856	117.066757735702	59
3	857	117.341267535484	60
3	859	117.851872107154	59
3	863	118.06104600686	58
3	864	118.196675080572	59
3	866	118.664571387673	60
3	870	119.449685759125	59
3	871	119.658859658831	60
3	873	119.76873590509	59
3	875	119.794488732543	60
3	877	121.047499411096	59
3	880	121.366549557061	60
3	881	122.645313063067	59
3	887	123.762431626864	58
3	888	124.243126715038	59
3	890	124.430389097516	58
3	891	125.360245278835	59
3	896	125.840940367009	60
3	898	126.028202749487	59
3	900	126.104532862852	58
3	902	126.30883667411	57
3	906	126.613255957388	56
3	908	126.958058930806	57
3	910	127.626016401458	58
3	912	127.702346514823	59
3	914	127.906650326081	60
3	916	128.211069609359	59
3	919	128.555872582777	60
3	921	128.730180918875	59
3	925	129.223830053429	60
3	929	129.287900586595	59
3	930	129.300160166794	60
3	938	129.80888326133	59
3	941	130.327994570846	60
3	948	130.885714238566	59
3	951	131.12909778188	58
3	952	131.406696913301	59
3	958	132.483527890537	60
3	960	132.726911433851	59
3	961	133.004510565272	60
3	969	134.324725085822	59
3	976	135.922538737793	60
3	989	138.069153639057	59
3	1002	139.666967291028	60
3	1007	141.157064716416	59
3	1008	142.754878368387	60
3	1011	144.00788904694	59
3	1016	145.605702698911	60
3	1021	146.489702657534	59
3	1024	147.47188638468	58
3	1025	148.087516309505	59
3	1031	148.555412616606	58
3	1033	149.069700036651	59
3	1040	149.685329961476	60
3	1044	149.854381261192	59
3	1045	150.153226268577	60
3	1052	150.667513688622	59
3	1056	150.898637651737	58
3	1059	151.40623694713	57
3	1061	151.452194913163	58
3	1065	152.265327340593	59
3	1067	152.496451303708	60
3	1071	153.004050599101	59
3	1072	153.050008565134	60
3	1075	153.863140992564	59
3	1076	154.601864251072	60
3	1077	155.460954644535	59
3	1083	156.74806134248	58
3	1084	157.058768296506	59
3	1086	157.519359437543	58
3	1087	158.345874994451	59
3	1091	158.551697805968	58
3	1092	158.656581948477	59
3	1095	159.117173089514	60
3	1101	159.450039511868	59
3	1106	159.823615559875	58
3	1107	159.943688646422	59
3	1109	160.149511457939	60
3	1115	160.254395600448	59
3	1117	160.370183768067	58
3	1126	161.047853163839	59
3	1130	161.421429211846	60
3	1134	161.541502298393	59
3	1141	161.852209252419	60
3	1144	161.967997420038	59
3	1146	162.021096686343	58
3	1151	162.64566681581	59
3	1154	163.139315950364	60
3	1157	163.565811072009	59
3	1158	163.618910338314	60
3	1159	164.243480467781	59
3	1160	165.16362472398	60
3	1164	165.841294119752	59
3	1170	167.249014350744	58
3	1171	167.439107771723	59
3	1181	168.846828002715	60
3	1183	169.036921423694	59
3	1188	170.099838681268	58
3	1193	170.634735075665	59
3	1195	171.063309792216	58
3	1196	171.697652333239	59
3	1200	172.232548727636	60
3	1202	172.661123444187	59
3	1203	173.29546598521	60
3	1205	173.336713245053	59
3	1207	174.258937096158	60
3	1211	174.934526897024	59
3	1216	175.94633089552	58
3	1219	176.09156901029	57
3	1220	176.532340548995	58
3	1221	177.544144547491	59
3	1223	177.689382662261	60
3	1225	178.130154200966	59
3	1227	178.157278969362	58
3	1233	178.797155226044	57
3	1235	179.141958199462	58
3	1239	179.727967852937	59
3	1241	179.755092621333	60
3	1247	180.394968878015	59
3	1248	180.739771851433	60
3	1251	181.325781504908	59
3	1255	181.992782529986	60
3	1257	182.303004024557	59
3	1261	182.923595156879	60
3	1265	183.269572749709	59
3	1272	183.83985798085	58
3	1273	183.900817676528	59
3	1278	184.399490094579	60
3	1283	184.86738640168	59
3	1284	185.437671632821	60
3	1285	185.498631328499	59
3	1290	185.652500773132	58
3	1294	186.465200053651	59
3	1295	187.09644498047	60
3	1297	187.250314425103	59
3	1298	188.063013705622	60
3	1301	188.848128077074	59
3	1305	190.445941729045	60
3	1316	193.340963985072	59
3	1324	194.938777637043	60
3	1340	197.92317837536	59
3	1341	199.520992027331	60
3	1353	202.023843778935	59
3	1356	202.038280529848	58
3	1359	203.621657430906	59
3	1370	205.219471082877	60
3	1376	205.450595045992	59
3	1381	206.323635600294	58
3	1387	206.654896676487	57
3	1391	207.048408697963	58
3	1399	208.646222349934	59
3	1405	210.244036001905	60
3	1409	210.735597074624	59
3	1413	212.333410726595	60
3	1419	213.437575244012	59
3	1425	214.77858434591	58
3	1426	215.035388895983	59
3	1433	216.633202547954	60
3	1450	220.20782957702	59
3	1456	221.805643228991	60
3	1465	223.697300117597	59
3	1468	225.295113769568	60
3	1503	229.51596726279	59
3	1510	231.113780914761	60
3	1518	234.12209201372	59
3	1520	234.726956897606	58
3	1521	235.719905665691	59
3	1526	236.827546708952	58
3	1529	237.317719317662	59
3	1537	238.391815375105	58
3	1540	238.915532969633	59
3	1553	240.513346621604	60
3	1562	242.34228423669	59
3	1563	243.940097888661	60
3	1572	245.524863253728	59
3	1578	247.122676905699	60
3	1587	249.741169418603	59
3	1592	251.070201415687	58
3	1594	251.338983070574	59
3	1601	252.936796722545	60
3	1608	254.222179798504	59
3	1617	255.819993450475	60
3	1621	256.57580117319	59
3	1623	256.786270457624	58
3	1625	256.924157967892	57
3	1629	258.173614825161	58
3	1632	258.641511132262	57
3	1635	259.771428477132	58
3	1645	261.369242129103	59
3	1659	262.91949634328	58
3	1660	262.967055781074	59
3	1666	264.564869433045	60
3	1671	265.817880111598	59
3	1676	267.415693763569	60
3	1687	271.616812888056	59
3	1692	272.220557883285	58
3	1695	272.80910734934	57
3	1699	273.214626540027	58
3	1702	273.670410971013	57
3	1708	274.759786971275	56
3	1709	274.812440191998	57
3	1715	275.916604709415	56
3	1718	276.199027278344	55
3	1719	276.410253843969	56
3	1722	277.020769226832	55
3	1728	278.00806749594	56
3	1732	278.845584017642	55
3	1733	279.605881147911	56
3	1741	280.858891826464	55
3	1743	281.203694799882	56
3	1756	282.801508451853	57
3	1766	284.399322103824	58
3	1772	285.997135755795	59
3	1777	287.594949407766	60
3	1788	289.011445977608	59
3	1792	290.609259629579	60
3	1797	291.862270308132	59
3	1801	292.15261501715	58
3	1804	292.94377276936	57
3	1805	293.460083960103	58
3	1812	295.057897612074	59
3	1821	296.162062129491	58
3	1825	296.655711264045	59
3	1829	297.055734897791	58
3	1833	297.708762522384	57
3	1836	298.253524916016	58
3	1843	299.851338567987	59
3	1848	301.449152219958	60
3	1859	305.939640580308	59
3	1862	306.40607906716	58
3	1863	307.537454232279	59
3	1866	308.641618749696	58
3	1868	309.13526788425	59
3	1872	310.733081536221	60
3	1882	311.127758567445	59
3	1887	311.49612268496	58
3	1890	311.934554357669	57
3	1894	312.119668622567	56
3	1897	312.725572219416	57
3	1902	313.978582897969	56
3	1904	314.323385871387	57
3	1909	315.103395611936	56
3	1911	315.427550388804	55
3	1914	315.921199523358	56
3	1923	317.519013175329	57
3	1939	319.1168268273	58
3	1942	319.655944453117	57
3	1946	320.714640479271	58
3	1954	322.312454131242	59
3	1966	323.910267783213	60
3	1981	329.31174436553	59
3	1986	330.83963035277	58
3	1987	330.909558017501	59
3	1997	332.507371669472	60
3	2001	332.738495632587	59
3	2018	334.336309284558	60
3	2037	341.195345246264	59
3	2050	342.793158898235	60
3	2053	342.832080944976	59
3	2060	344.046169576788	58
3	2062	344.429894596947	59
3	2065	345.023524697696	58
3	2066	346.027708248918	59
3	2073	347.625521900889	60
3	2076	348.09341820799	59
3	2083	349.691231859961	60
3	2087	349.89266179104	59
3	2090	350.18313802058	58
3	2097	350.898417509672	57
3	2098	351.490475443011	58
3	2104	353.088289094982	59
3	2110	354.192453612399	58
3	2113	354.474876181328	57
3	2114	354.686102746953	58
3	2120	355.296618129816	57
3	2125	356.283916398924	58
3	2133	357.881730050895	59
3	2141	358.589978335816	58
3	2145	359.479543702866	59
3	2152	361.077357354837	60
3	2161	362.33036803339	59
3	2168	363.928181685361	60
3	2179	365.6797159617	59
3	2184	366.587753623533	58
3	2186	366.783880479117	57
3	2188	367.277529613671	58
3	2192	367.287294880592	57
3	2195	367.745425920772	56
3	2200	368.875343265642	57
3	2205	369.52664568839	56
3	2206	370.473156917613	57
3	2211	372.070970569584	58
3	2219	373.323981248137	57
3	2221	373.668784221555	58
3	2231	375.266597873526	59
3	2236	375.984611425368	58
3	2240	376.370762390943	57
3	2242	376.864411525497	58
3	2253	378.112495037723	57
3	2255	378.462225177468	58
3	2258	379.715235856021	57
3	2260	380.060038829439	58
3	2264	381.65785248141	59
3	2269	383.255666133381	60
3	2289	384.681927970144	59
3	2297	386.279741622115	60
3	2302	387.383906139532	59
3	2311	388.411891475376	58
3	2315	388.8701533562	57
3	2316	388.981719791503	58
3	2319	389.142151817732	57
3	2326	390.579533443474	58
3	2329	391.047429750575	57
3	2332	392.177347095445	58
3	2335	392.645243402546	57
3	2340	393.775160747416	58
3	2347	395.372974399387	59
3	2359	396.970788051358	60
3	2375	402.04768755787	59
3	2378	402.076561059696	58
3	2379	403.645501209841	59
3	2384	405.243314861812	60
3	2392	407.096888671377	59
3	2400	408.227715600129	58
3	2401	408.694702323348	59
3	2410	409.798866840765	58
3	2419	410.292515975319	59
3	2428	410.773877604472	58
3	2431	410.903031358182	57
3	2437	411.89032962729	58
3	2448	413.488143279261	59
3	2457	415.085956931232	60
3	2464	416.472544017578	59
3	2468	418.070357669549	60
3	2476	419.471194149248	59
3	2482	420.231673355955	58
3	2483	421.069007801219	59
3	2495	422.231122157759	58
3	2496	422.66682145319	59
3	2504	423.277336836053	58
3	2509	424.264635105161	59
3	2512	424.495759068276	58
3	2514	424.732531412262	57
3	2519	425.862448757132	58
3	2523	427.460262409103	59
3	2530	428.168510694024	58
3	2536	429.058076061074	59
3	2550	430.655889713045	60
3	2574	434.388382289511	59
3	2577	435.986195941482	60
3	2583	436.8658272388	59
3	2586	438.41565915404	58
3	2587	438.463640890771	59
3	2590	439.716651569324	58
3	2592	440.061454542742	59
3	2598	440.529350849843	58
3	2601	440.8159713684	57
3	2604	441.659268194713	58
3	2611	443.257081846684	59
3	2617	444.854895498655	60
3	2624	445.563143783576	59
3	2626	445.959060016072	58
3	2632	446.90067635963	57
3	2633	447.160957435547	58
3	2638	448.4139681141	57
3	2640	448.758771087518	58
3	2646	450.356584739489	59
3	2654	451.95439839146	60
3	2696	456.212520141354	59
3	2699	456.599644952125	58
3	2705	457.810333793325	59
3	2708	459.408147445296	60
3	2711	460.661158123849	59
3	2713	462.25897177582	60
3	2720	462.957776873128	59
3	2726	464.555590525099	60
3	2737	466.24418402744	59
3	2749	467.539991263416	58
3	2750	467.841997679411	59
3	2755	468.309893986512	58
3	2758	469.439811331382	59
3	2763	471.037624983353	60
3	2767	471.655093417904	59
3	2770	473.252907069875	60
3	2776	474.357071587292	59
3	2779	474.535054065423	58
3	2782	474.78363075021	57
3	2783	475.954885239263	58
3	2795	477.552698891234	59
3	2799	477.857411340399	58
3	2810	479.150512543205	59
3	2816	479.618408850306	58
3	2822	480.35240996268	57
3	2823	480.748326195176	58
3	2826	482.346139847147	59
3	2830	483.943953499118	60
3	2833	485.196964177671	59
3	2840	485.58769169525	58
3	2842	485.774748297764	57
3	2843	486.794777829642	58
3	2850	488.392591481613	59
3	2854	488.409062837813	58
3	2857	489.049726507456	57
3	2860	489.990405133584	58
3	2863	491.094569651001	57
3	2865	491.588218785555	58
3	2873	493.186032437526	59
3	2882	494.439043116079	58
3	2884	494.783846089497	59
3	2893	496.381659741468	60
3	2906	497.747043052232	59
3	2918	499.344856704203	60
3	2924	499.672506524273	59
3	2929	500.597867382756	58
3	2932	501.270320176244	59
3	2935	502.868133828215	60
3	2947	506.444359597008	59
3	2953	508.042173248979	60
3	2956	508.254136762446	59
3	2962	509.851950414417	60
3	2976	511.026573987296	59
3	2979	511.15160234638	58
3	2987	512.624387639267	59
3	2992	514.222201291238	60
3	2998	515.475211969791	59
3	3005	517.073025621762	60
3	3013	519.493830994787	59
3	3017	521.091644646758	60
3	3033	522.908984289915	59
3	3037	523.83899268656	58
3	3040	524.27470703087	57
3	3041	524.506797941886	58
3	3043	526.104611593857	59
3	3046	527.35762227241	58
3	3048	527.702425245828	59
3	3051	528.170321552929	58
3	3053	529.300238897799	59
3	3057	529.335588144465	58
3	3064	530.733525227128	57
3	3065	530.89805254977	58
3	3072	532.495866201741	59
3	3081	532.963762508842	58
3	3094	534.093679853712	59
3	3099	535.197844371129	58
3	3101	535.691493505683	59
3	3105	537.289307157654	60
3	3113	541.233625776112	59
3	3118	541.973219459469	58
3	3122	542.831439428083	59
3	3131	544.084450106636	58
3	3139	544.429253080054	59
3	3161	546.027066732025	60
3	3165	546.23396694291	59
3	3176	547.51957394255	58
3	3178	547.831780594881	59
3	3180	549.429594246852	60
3	3183	549.897490553953	59
3	3193	551.495304205924	60
3	3201	553.21291369181	59
3	3206	554.587003517867	58
3	3207	554.810727343781	59
3	3214	556.408540995752	60
3	3217	556.876437302853	59
3	3219	558.474250954824	60
3	3223	558.628258865664	59
3	3226	560.226072517635	60
3	3257	565.703559740635	59
3	3263	567.301373392606	60
3	3279	568.554384071159	59
3	3284	568.729264331743	58
3	3291	570.15219772313	59
3	3295	571.750011375101	60
3	3305	576.022891955216	59
3	3316	577.620705607187	60
3	3334	580.605106345504	59
3	3335	582.202919997475	60
3	3339	582.3052300343	59
3	3344	583.88754553872	58
3	3345	583.903043686271	59
3	3350	584.720208499992	58
3	3353	585.500857338242	59
3	3362	586.753868016795	58
3	3367	587.098670990213	59
3	3370	587.675973857894	58
3	3374	588.20283550763	57
3	3376	588.696484642184	58
3	3384	589.800649159601	57
3	3386	590.294298294155	58
3	3394	591.892111946126	59
3	3401	593.417525044768	58
3	3402	593.489925598097	59
3	3404	595.087739250068	60
3	3407	596.340749928621	59
3	3415	597.938563580592	60
3	3418	598.171690621174	59
3	3428	599.769504273145	60
3	3440	602.071531336805	59
3	3443	602.114841589544	58
3	3447	603.669344988776	59
3	3452	604.137241295877	58
3	3454	605.267158640747	59
3	3457	606.371323158164	58
3	3459	606.864972292718	59
3	3463	608.462785944689	60
3	3474	609.411384853515	59
3	3476	609.735287417912	58
3	3480	611.009198505486	59
3	3486	612.113363022903	58
3	3493	612.607012157457	59
3	3498	613.074908464558	58
3	3506	614.034595608888	57
3	3508	614.204825809428	58
3	3517	615.802639461399	59
3	3521	617.40045311337	60
3	3536	620.25551713489	59
3	3541	620.764944197921	58
3	3546	620.99224536992	57
3	3551	621.853330786861	58
3	3560	622.321227093962	57
3	3565	623.451144438832	58
3	3569	623.919040745933	57
3	3572	625.048958090803	58
3	3577	626.646771742774	59
3	3583	628.206791223872	58
3	3584	628.244585394745	59
3	3588	629.842399046716	60
3	3602	631.79460097793	59
3	3604	631.890773318197	58
3	3605	633.392414629901	59
3	3608	633.860310937002	58
3	3613	634.990228281872	59
3	3616	635.273763856229	58
3	3619	636.094392799289	57
3	3621	636.588041933843	58
3	3625	636.904107768648	57
3	3628	638.185855585814	58
3	3632	638.439502932975	57
3	3635	639.783669237785	58
3	3641	640.33575303773	57
3	3644	641.381482889756	58
3	3650	642.485647407173	57
3	3657	642.979296541727	58
3	3669	644.577110193698	59
3	3684	645.601424313424	58
[...]
11	9430	1788.777596178739	60
11	9461	1795.610994266271	59
11	9462	1796.504139267155	60
11	9492	1802.884683440733	59
11	9493	1803.777828441617	60
11	9537	1812.116722600029	59
11	9540	1813.009867600913	60
11	9546	1813.369733278582	59
11	9552	1814.262878279466	60
11	9569	1819.739157858184	59
11	9578	1820.632302859068	60
11	9595	1823.298361946343	59
11	9600	1823.953244385183	58
11	9603	1824.191506947227	59
11	9605	1824.846389386067	60
11	9610	1825.084651948111	59
11	9613	1825.977796948995	60
11	9625	1828.43647440296	59
11	9626	1829.329619403844	60
11	9667	1837.352252932172	59
11	9668	1838.245397933056	60
11	9722	1851.039087674039	59
11	9723	1851.932232674923	60
11	9733	1854.528424037288	59
11	9740	1855.421569038172	60
11	9770	1859.831641396854	59
11	9775	1860.724786397738	60
11	9811	1868.257138875707	59
11	9813	1869.150283876591	60
11	9817	1871.92305712684	59
11	9818	1872.816202127724	60
11	9852	1879.496833108048	59
11	9858	1880.389978108932	60
11	9905	1893.550724093877	59
11	9910	1894.443869094761	60
11	9949	1900.945844505969	59
11	9956	1901.838989506853	60
11	9962	1902.401470266513	59
11	9965	1903.294615267397	60
11	9980	1905.957887220181	59
11	9984	1906.851032221065	60
11	10003	1911.38363362011	59
11	10005	1912.276778620994	60
11	10024	1914.958061307275	59
11	10027	1915.40963985072	58
11	10031	1915.851206308159	59
11	10034	1916.302784851604	60
11	10039	1916.744351309043	59
11	10043	1916.811882360136	58
11	10047	1917.637496309927	59
11	10048	1917.70502736102	60
11	10052	1918.530641310811	59
11	10055	1919.423786311695	60
11	10102	1928.004822506285	59
11	10105	1928.897967507169	60
11	10159	1938.509501023241	59
11	10163	1939.402646024125	60
11	10205	1950.198906029824	59
11	10211	1951.092051030708	60
11	10222	1952.945068980122	59
11	10223	1953.838213981006	60
11	10233	1955.502260740146	59
11	10237	1956.39540574103	60
11	10256	1958.8962225746	59
11	10259	1959.789367575484	60
11	10270	1961.423508018925	59
11	10271	1962.316653019809	60
11	10341	1977.561574300164	59
11	10342	1978.454719301048	60
11	10359	1980.71868536802	59
11	10361	1981.439195570569	58
11	10363	1981.611830368904	59
11	10368	1982.332340571453	60
11	10370	1982.504975369788	59
11	10373	1983.398120370672	60
11	10388	1986.120161950337	59
11	10389	1987.013306951221	60
11	10434	1993.685488753704	59
11	10442	1994.578633754588	60
11	10480	2002.098298470047	59
11	10490	2002.991443470931	60
11	10499	2003.558718357582	59
11	10502	2004.451863358466	60
11	10516	2006.89173942596	59
11	10517	2007.784884426844	60
11	10572	2018.986134715254	59
11	10576	2019.879279716138	60
11	10609	2026.397972499933	59
11	10615	2027.291117500817	60
11	10636	2032.709858200209	59
11	10643	2033.603003201093	60
11	10666	2036.486756286441	59
11	10670	2037.379901287325	60
11	10689	2039.66674911431	59
11	10692	2040.559894115194	60
11	10697	2042.433408740598	59
11	10701	2043.326553741482	60
11	10739	2050.906443346651	59
11	10743	2051.799588347535	60
11	10792	2059.331940825504	59
11	10794	2060.225085826388	60
11	10832	2071.75532045567	59
11	10838	2072.648465456554	60
11	10860	2075.832972320859	59
11	10863	2076.726117321743	60
11	10926	2090.213295188598	59
11	10930	2091.106440189482	60
11	10949	2093.836137893979	59
11	10957	2094.729282894863	60
11	11017	2107.104914508356	59
11	11018	2107.99805950924	60
11	11030	2110.44233579129	59
11	11032	2110.854438844869	58
11	11035	2111.335480792174	59
11	11043	2111.747583845753	60
11	11046	2112.228625793058	59
11	11051	2113.121770793942	60
11	11070	2116.315526358661	59
11	11074	2117.208671359545	60
11	11087	2120.947112440281	59
11	11090	2121.840257441165	60
11	11117	2128.249071934421	59
11	11123	2129.142216935305	60
11	11139	2131.97676922029	59
11	11143	2132.869914221174	60
11	11188	2141.300936180449	59
11	11195	2142.194081181333	60
11	11246	2154.036082780308	59
11	11249	2154.929227781192	60
11	11271	2159.362916044928	59
11	11275	2160.256061045812	60
11	11279	2160.914437610356	59
11	11284	2161.80758261124	60
11	11294	2163.303385670061	59
11	11298	2164.196530670945	60
11	11338	2172.088013618397	59
11	11341	2172.981158619281	60
11	11359	2175.362550692308	59
11	11362	2176.255695693192	60
11	11366	2176.329136194	59
11	11368	2176.615561370861	58
11	11369	2177.222281194884	59
11	11372	2177.508706371745	60
11	11377	2178.115426195768	59
11	11380	2179.008571196652	60
11	11387	2182.968577381255	59
11	11389	2183.861722382139	60
11	11484	2201.175738215697	59
11	11485	2202.068883216581	60
11	11494	2202.421085828328	59
11	11500	2203.314230829212	60
11	11511	2206.233080217389	59
11	11513	2207.126225218273	60
11	11554	2217.288432729049	59
11	11556	2217.47277444973	58
11	11558	2218.181577729933	59
11	11561	2218.365919450614	60
11	11568	2219.074722730817	59
11	11571	2219.81571891788	58
11	11572	2219.967867731701	59
11	11581	2220.708863918764	60
11	11586	2220.861012732585	59
11	11593	2221.754157733469	60
11	11599	2226.50338179815	59
11	11600	2227.396526799034	60
11	11612	2229.90254815614	59
11	11619	2230.795693157024	60
11	11663	2239.888642284375	59
11	11671	2240.781787285259	60
11	11683	2241.981245296448	59
11	11686	2242.874390297332	60
11	11729	2253.220939528789	59
11	11730	2254.114084529673	60
11	11737	2254.604985096984	59
11	11740	2255.498130097868	60
11	11784	2264.9375727362	59
11	11788	2265.830717737084	60
11	11820	2273.671245611435	59
11	11825	2274.564390612319	60
11	11845	2278.365119966967	59
11	11846	2279.258264967851	60
11	11891	2286.391964140416	59
11	11895	2287.2851091413	60
11	11913	2289.394251276088	59
11	11916	2290.287396276972	60
11	11924	2291.223188891174	59
11	11925	2292.116333892058	60
11	11968	2302.107071432767	59
11	11969	2303.000216433651	60
11	11996	2307.390328308458	59
11	11999	2307.689270950353	58
11	12002	2308.283473309342	59
11	12004	2308.582415951237	60
11	12012	2309.176618310226	59
11	12019	2310.06976331111	60
11	12035	2315.036355205734	59
11	12039	2315.929500206618	60
11	12067	2320.74753817343	59
11	12068	2321.640683174314	60
11	12149	2337.541566968644	59
11	12150	2338.434711969528	60
11	12166	2341.17750567062	59
11	12175	2342.070650671504	60
11	12245	2353.602115916375	59
11	12249	2354.495260917259	60
11	12258	2356.108137273481	59
11	12261	2357.001282274365	60
11	12271	2358.972783634296	59
11	12272	2359.86592863518	60
11	12279	2361.90793547282	59
11	12286	2362.801080473704	60
11	12291	2363.228933792494	59
11	12297	2364.122078793378	60
11	12304	2364.869395057783	59
11	12305	2365.762540058667	60
11	12348	2376.109089290124	59
11	12357	2377.002234291008	60
11	12377	2381.25144314063	59
11	12378	2382.144588141514	60
11	12398	2385.658875160497	59
11	12402	2386.552020161381	60
11	12428	2392.559104116091	59
11	12429	2393.452249116975	60
11	12443	2396.522767795734	59
11	12450	2397.415912796618	60
11	12523	2411.38790495421	59
11	12524	2412.281049955094	60
11	12547	2419.853999447728	59
11	12563	2420.747144448612	60
11	12574	2421.816353013904	59
11	12583	2422.535821104377	58
11	12584	2422.709498014788	59
11	12588	2423.428966105261	60
11	12591	2423.602643015672	59
11	12596	2424.495788016556	60
11	12634	2435.503187755771	59
11	12635	2436.396332756655	60
11	12686	2445.705597104236	59
11	12692	2446.59874210512	60
11	12713	2453.506353328891	59
11	12717	2454.399498329775	60
11	12762	2463.340582171608	59
11	12768	2464.233727172492	60
11	12773	2464.386181883563	59
11	12781	2465.279326884447	60
11	12789	2465.890737837635	59
11	12793	2466.775129943268	58
11	12794	2466.783882838519	59
11	12799	2467.668274944152	60
11	12801	2467.677027839403	59
11	12804	2468.570172840287	60
11	12818	2473.896129400569	59
11	12822	2474.789274401453	60
11	12832	2475.200627422121	59
11	12834	2475.625876115904	60
11	12836	2476.093772423005	59
11	12842	2476.986917423889	60
11	12887	2488.490947392961	59
11	12889	2489.25451840795	58
11	12890	2489.384092393845	59
11	12898	2490.147663408834	60
11	12900	2490.277237394729	59
11	12904	2491.170382395613	60
11	12927	2497.31248914749	59
11	12934	2498.129848350712	58
11	12938	2498.205634148374	59
11	12941	2499.022993351596	60
11	12944	2499.098779149258	59
11	12953	2499.958785965798	58
11	12954	2499.991924150142	59
11	12955	2500.851930966682	60
11	12959	2500.885069151026	59
11	12960	2501.77821415191	60
11	13043	2520.077570418357	59
11	13045	2520.545466725458	58
11	13047	2520.970715419241	59
11	13052	2521.438611726342	60
11	13056	2521.863860420125	59
11	13057	2522.757005421009	60
11	13119	2534.213295337314	59
11	13124	2535.106440338198	60
11	13152	2541.616431074592	59
11	13158	2542.509576075476	60
11	13165	2543.06404150995	59
11	13171	2543.957186510834	60
11	13189	2548.085768719698	59
11	13190	2548.978913720582	60
11	13224	2555.34301215092	59
11	13230	2556.236157151804	60
11	13251	2560.097718745744	59
11	13255	2560.990863746628	60
11	13290	2567.70838070892	59
11	13292	2567.932378034337	58
11	13295	2568.601525709804	59
11	13298	2568.825523035221	60
11	13305	2569.494670710688	59
11	13306	2570.387815711572	60
11	13321	2574.68651981873	59
11	13322	2575.579664819614	60
11	13344	2578.891785614265	59
11	13348	2579.784930615149	60
11	13352	2580.114768558756	59
11	13357	2581.00791355964	60
11	13377	2585.103013798472	59
11	13380	2585.996158799356	60
11	13396	2589.663279704603	59
11	13397	2590.556424705487	60
11	13452	2602.497646888024	59
11	13459	2603.390791888908	60
11	13475	2605.427169386693	59
11	13478	2606.320314387577	60
11	13519	2615.598813853929	59
11	13523	2616.491958854813	60
11	13537	2619.892279977576	59
11	13541	2620.78542497846	60
11	13550	2621.721217592662	59
11	13555	2622.614362593546	60
11	13563	2624.092204724917	59
11	13564	2624.985349725801	60
11	13578	2628.589596522352	59
11	13579	2629.482741523236	60
11	13612	2635.925666392345	59
11	13615	2636.818811393229	60
11	13666	2646.610237660724	59
11	13670	2647.503382661608	60
11	13707	2654.68154615668	59
11	13710	2655.574691157564	60
11	13729	2657.849931893065	59
11	13730	2658.743076893949	60
11	13768	2668.34113933099	59
11	13772	2669.234284331874	60
11	13775	2669.292623835569	59
11	13776	2670.185768836453	60
11	13816	2678.300237975711	59
11	13823	2679.193382976595	60
11	13875	2690.74756582559	59
11	13882	2691.640710826474	60
11	13903	2694.016155099614	59
11	13909	2694.909300100498	60
11	13936	2700.779626440393	59
11	13940	2701.672771441277	60
11	13977	2710.0910734934	59
11	13981	2710.984218494284	60
11	13991	2711.659454995065	59
11	13996	2712.552599995949	60
11	14022	2716.529018355966	59
11	14025	2717.42216335685	60
11	14057	2725.288097287111	59
11	14060	2726.181242287995	60
11	14079	2729.43458116121	59
11	14083	2730.327726162094	60
11	14115	2736.527791519452	59
11	14124	2737.420936520336	60
11	14170	2747.767485751793	59
11	14177	2748.660630752677	60
11	14186	2749.637548900794	59
11	14192	2750.530693901678	60
11	14259	2764.310681957006	59
11	14260	2765.20382695789	60
11	14276	2767.432677462987	59
11	14280	2767.746661238768	58
11	14286	2768.325822463871	59
11	14290	2768.639806239652	60
11	14298	2769.218967464755	59
11	14301	2770.112112465639	60
11	14340	2780.7380816544	59
11	14344	2781.631226655284	60
11	14382	2787.46510416464	59
11	14383	2788.358249165524	60
11	14399	2790.86427052263	59
11	14401	2791.757415523514	60
11	14411	2793.75617602083	59
11	14415	2794.649321021714	60
11	14435	2801.936874531462	59
11	14443	2802.830019532346	60
11	14459	2804.785832800839	59
11	14462	2805.678977801723	60
11	14473	2806.80861183245	59
11	14480	2807.701756833334	60
11	14500	2813.176568763803	59
11	14502	2814.069713764687	60
11	14521	2819.930560507424	59
11	14525	2820.823705508308	60
11	14541	2824.416262996144	59
11	14545	2825.309407997028	60
11	14562	2827.494090722851	59
11	14566	2828.387235723735	60
11	14571	2828.6278770522	59
11	14576	2829.521022053084	60
11	14595	2836.936552816105	59
11	14601	2837.829697816989	60
11	14619	2842.58653085999	59
11	14620	2843.479675860874	60
11	14633	2845.49562716807	59
11	14640	2846.388772168954	60
11	14645	2846.535785783157	59
11	14652	2847.428930784041	60
11	14677	2850.654683496485	59
11	14678	2851.547828497369	60
11	14726	2861.329683052711	59
11	14729	2862.222828053595	60
11	14735	2863.417143231304	59
11	14736	2864.310288232188	60
11	14743	2864.83913483588	59
11	14744	2865.732279836764	60
11	14761	2870.655635513128	59
11	14763	2870.963773480893	58
11	14764	2871.548780514012	59
11	14766	2871.856918481777	60
11	14775	2872.441925514896	59
11	14780	2873.33507051578	60
11	14829	2882.643816539885	59
11	14830	2883.536961540769	60
11	14837	2884.18264250369	59
11	14838	2885.075787504574	60
11	14882	2895.613460425849	59
11	14888	2896.506605426733	60
11	14897	2898.206409410408	59
11	14900	2899.099554411292	60
11	14911	2902.309008251079	59
11	14916	2903.202153251963	60
11	14920	2903.5261501715	59
11	14923	2904.419295172384	60
11	14960	2913.503437652672	59
11	14965	2914.333816854872	58
11	14967	2914.396582653556	59
11	14977	2915.226961855756	60
11	14979	2915.28972765444	59
11	14987	2916.182872655324	60
11	15042	2928.231750731835	59
11	15046	2929.124895732719	60
11	15069	2932.995675589512	59
11	15072	2933.888820590396	60
11	15095	2938.093800907174	59
11	15096	2938.986945908058	60
11	15116	2942.21316550712	59
11	15119	2943.106310508004	60
11	15161	2952.529122443457	59
11	15162	2953.422267444341	60
11	15193	2961.321676166272	59
11	15199	2962.214821167156	60
11	15209	2963.095348054807	59
11	15215	2963.988493055691	60
11	15270	2974.511167581719	59
11	15271	2975.404312582603	60
11	15317	2984.59441990693	59
11	15320	2985.179574858168	58
11	15324	2985.487564907814	59
11	15330	2986.380709908698	60
11	15356	2992.226562109807	59
11	15359	2992.289998060992	58
11	15360	2993.119707110691	59
11	15365	2994.012852111575	60
11	15416	3006.280453095636	59
11	15423	3007.17359809652	60
11	15431	3008.295767165459	59
11	15436	3009.188912166343	60
11	15445	3011.271524492496	59
11	15448	3012.16466949338	60
11	15460	3014.34931162101	59
11	15461	3015.242456621894	60
11	15474	3018.108343656669	59
11	15475	3019.001488657553	60
11	15479	3019.58719617836	59
11	15483	3020.480341179244	60
11	15522	3028.08100263081	59
11	15526	3028.974147631694	60
11	15537	3031.199763848221	59
11	15538	3032.092908849105	60
11	15549	3036.408625181028	59
11	15553	3037.301770181912	60
11	15558	3037.363474126824	59
11	15561	3038.256619127708	60
11	15583	3040.476474767729	59
11	15586	3041.369619768613	60
11	15604	3047.438281961037	59
11	15610	3048.331426961921	60
11	15637	3053.686370534526	59
11	15641	3054.57951553541	60
11	15689	3063.585386956605	59
11	15690	3064.478531957489	60
11	15717	3073.718618489682	59
11	15720	3074.611763490566	60
11	15772	3082.144115968535	59
11	15776	3083.037260969419	60
11	15826	3096.941109285493	59
11	15830	3097.834254286377	60
11	15929	3116.331094972659	59
11	15930	3117.224239973543	60
11	15952	3121.376210372159	59
11	15956	3122.269355373043	60
11	15970	3124.103941369	59
11	15976	3124.997086369884	60
11	16009	3133.03395611936	59
11	16014	3133.927101120244	60
11	16064	3143.277705192652	59
11	16068	3144.170850193536	60
11	16076	3144.875518844623	59
11	16083	3145.768663845507	60
11	16115	3150.428589208912	59
11	16122	3151.266773452507	58
11	16123	3151.321734209796	59
11	16128	3152.21487921068	60
11	16132	3152.396478116069	59
11	16139	3153.289623116953	60
11	16186	3164.445154514976	59
11	16187	3165.33829951586	60
11	16205	3167.823222298464	59
11	16207	3168.079238825862	58
11	16208	3168.716367299348	59
11	16212	3168.764506541136	58
11	16217	3169.609512300232	59
11	16222	3170.502657301116	60
11	16257	3177.998781131883	59
11	16261	3178.891926132767	60
11	16281	3183.301364059604	59
11	16285	3184.194509060488	60
11	16327	3191.393417455523	59
11	16328	3192.286562456407	60
11	16337	3193.67876518865	59
11	16340	3193.915171932792	58
11	16347	3194.541058291945	57
11	16349	3194.571910189534	58
11	16352	3195.465055190418	59
11	16359	3196.358200191302	60
11	16384	3205.780752524286	59
11	16390	3206.67389752517	60
11	16415	3211.697653163393	59
11	16416	3212.590798164277	60
11	16450	3219.086156715699	59
11	16451	3219.979301716583	60
11	16470	3223.670645178163	59
11	16472	3223.912790441181	58
11	16473	3224.563790179047	59
11	16478	3225.456935179931	60
11	16496	3228.704438111896	59
11	16497	3229.59758311278	60
11	16509	3232.36578052427	59
11	16513	3233.027829117428	58
11	16514	3233.258925525154	59
11	16523	3234.152070526038	60
11	16533	3235.76494688226	59
11	16534	3236.658091883144	60
11	16558	3240.284949592761	59
11	16562	3241.178094593645	60
11	16601	3252.805239412722	59
11	16602	3253.698384413606	60
11	16621	3256.898072274045	59
11	16626	3257.001760781208	58
11	16629	3257.791217274929	59
11	16639	3258.684362275813	60
11	16649	3260.057725009238	59
11	16652	3260.950870010122	60
11	16694	3269.644606921064	59
11	16698	3270.537751921948	60
11	16744	3277.911946774875	59
11	16745	3278.805091775759	60
11	16801	3289.096642338672	59
11	16805	3289.989787339556	60
11	16812	3290.3963035277	59
11	16817	3291.289448528584	60
11	16850	3298.282970470104	59
11	16854	3299.176115470988	60
11	16865	3300.533370096047	59
11	16869	3301.426515096931	60
11	16898	3309.752197368843	59
11	16902	3310.645342369727	60
11	16928	3315.677603559656	59
11	16932	3316.57074856054	60
11	16961	3322.945382976156	59
11	16963	3323.179701461262	58
11	16964	3323.83852797704	59
11	16971	3324.374920104432	58
11	16972	3324.731672977924	59
11	16978	3325.624817978808	60
11	16996	3329.417389080037	59
11	17001	3330.310534080921	60
11	17011	3332.746842474363	59
11	17017	3333.072236649208	58
11	17018	3333.639987475247	59
11	17025	3334.533132476131	60
11	17047	3340.657083312378	59
11	17051	3341.550228313262	60
11	17092	3349.919096806712	59
11	17096	3350.812241807596	60
11	17110	3352.681891916171	59
11	17112	3353.575036917055	60
11	17139	3359.164186283536	59
11	17140	3360.05733128442	60
11	17154	3365.202181736132	59
11	17161	3366.095326737016	60
11	17164	3367.298328581298	59
11	17174	3368.103082604797	58
11	17175	3368.191473582182	59
11	17178	3369.084618583066	60
11	17213	3374.376166009401	59
11	17215	3375.269311010285	60
11	17221	3376.558819373088	59
11	17227	3377.451964373972	60
11	17267	3388.9069959703	59
11	17275	3389.800140971184	60
11	17348	3403.863018574563	59
11	17349	3404.756163575447	60
11	17390	3412.378863989099	59
11	17393	3413.272008989983	60
11	17445	3422.149139692253	59
11	17446	3423.042284693137	60
11	17449	3423.402150370806	59
11	17455	3424.29529537169	60
11	17514	3434.636821793783	59
11	17515	3435.529966794667	60
11	17571	3445.758936719914	59
11	17580	3446.652081720798	60
11	17601	3453.83914000724	59
11	17606	3454.732285008124	60
11	17634	3460.096005539086	59
11	17638	3460.98915053997	60
11	17661	3465.078834239581	59
11	17668	3465.971979240465	60
11	17699	3472.229301365624	59
11	17704	3473.122446366508	60
11	17732	3478.347610853958	59
11	17735	3479.240755854842	60
11	17782	3489.623934455176	59
11	17788	3490.51707945606	60
11	17792	3490.544433113742	59
11	17795	3491.437578114626	60
11	17819	3498.797916936604	59
11	17824	3499.691061937488	60
11	17846	3505.500377382631	59
11	17850	3506.393522383515	60
11	17889	3512.736016957983	59
11	17890	3513.629161958867	60
11	17916	3521.277305401286	59
11	17918	3522.17045040217	60
11	17924	3522.530316079839	59
11	17925	3523.423461080723	60
11	17989	3533.797595221247	59
11	17990	3534.690740222131	60
11	18010	3542.971579494516	59
11	18017	3543.8647244954	60
11	18087	3558.253866550643	59
11	18088	3559.147011551527	60
11	18138	3567.51667791827	59
11	18142	3568.409822919154	60
11	18198	3580.260623513979	59
11	18202	3581.153768514863	60
11	18246	3589.996066382952	59
11	18247	3590.889211383836	60
