version 2
run conf2-3-20161125-01:36:01-3004
attr configname conf2
attr datetime 20161125-01:36:01
attr experiment conf2
attr i 15
attr inifile omnetpp.ini
attr iterationvars "$i=15, $p=2"
attr iterationvars2 "$i=15, $p=2, $repetition=0"
attr measurement "$i=15, $p=2"
attr network Omrezje
attr p 2
attr processid 3004
attr repetition 0
attr replication #0
attr resultdir results
attr runnumber 3
attr seedset 3
param Omrezje.router*.processingTime "truncnormal(${p = 1..2 step 1}, ${p} * 0.5)"
param Omrezje.source*.interArrivalTime "truncnormal(${i = 10..15 step 5}, ${i} * 0.5)"

vector 0  Omrezje.router  droppedPackage:vector  ETV
attr interpolationmode  none
attr title  "drop package, vector"
vector 1  Omrezje.router  queueLength:vector  ETV
attr interpolationmode  none
attr title  "queue length, vector"
vector 2  Omrezje.router1  droppedPackage:vector  ETV
attr interpolationmode  none
attr title  "drop package, vector"
vector 3  Omrezje.router1  queueLength:vector  ETV
attr interpolationmode  none
attr title  "queue length, vector"
vector 4  Omrezje.router2  droppedPackage:vector  ETV
attr interpolationmode  none
attr title  "drop package, vector"
vector 5  Omrezje.router2  queueLength:vector  ETV
attr interpolationmode  none
attr title  "queue length, vector"
vector 6  Omrezje.router3  droppedPackage:vector  ETV
attr interpolationmode  none
attr title  "drop package, vector"
vector 7  Omrezje.router3  queueLength:vector  ETV
attr interpolationmode  none
attr title  "queue length, vector"
vector 8  Omrezje.router4  droppedPackage:vector  ETV
attr interpolationmode  none
attr title  "drop package, vector"
vector 9  Omrezje.router4  queueLength:vector  ETV
attr interpolationmode  none
attr title  "queue length, vector"
vector 10  Omrezje.router5  droppedPackage:vector  ETV
attr interpolationmode  none
attr title  "drop package, vector"
vector 11  Omrezje.router5  queueLength:vector  ETV
attr interpolationmode  none
attr title  "queue length, vector"
0	0	0	0
1	0	0	0
1	172	4.599683159923	59
1	191	7.199366319846	58
1	193	7.440185312316	59
1	207	10.039868472239	60
1	212	10.280687464709	59
1	223	13.121189617102	60
1	239	17.067817573955	59
1	255	19.908319726348	60
1	258	19.957501785747	59
1	267	20.728473461206	58
1	277	22.79800393814	59
1	285	23.568975613599	60
1	299	25.638506090533	59
1	311	26.504696666724	58
1	320	28.479008242926	59
1	329	29.345198819117	60
1	344	31.319510395319	59
1	346	31.368025093368	58
1	349	32.13563514791	57
1	351	32.715115751187	56
1	355	34.160012547712	57
1	356	34.208527245761	58
1	366	34.976137300303	59
1	369	35.025319359702	58
1	371	35.55561790358	59
1	378	37.000514700105	60
1	380	37.049029398154	59
1	386	37.816639452696	60
1	387	37.865821512095	59
1	389	38.155301063503	58
1	394	38.396120055973	59
1	409	39.889531550547	60
1	414	40.706323664488	59
1	420	40.995803215896	60
1	423	41.236622208366	59
1	435	43.546825816881	60
1	437	44.077124360759	59
1	446	46.917626513152	60
1	458	47.934065617186	59
1	466	49.183119189391	58
1	477	50.774567769579	59
1	488	51.974439282385	60
1	490	52.023621341784	59
1	494	52.887947350162	58
1	504	53.374250929502	57
1	505	53.615069921972	58
1	521	54.864123494177	59
1	532	55.728449502555	60
1	535	55.777631561954	59
1	539	56.214753081895	60
1	543	56.455572074365	59
1	548	57.70462564657	60
1	557	58.618133714347	59
1	561	59.296074226758	60
1	568	61.45863586674	59
1	579	63.26174166681	58
1	581	64.299138019133	59
1	589	66.102243819203	60
1	600	67.139640171526	59
1	602	67.272972542654	58
1	607	68.985136843475	57
1	609	69.114844365055	56
1	612	69.980142323919	57
1	613	70.113474695047	58
1	624	71.825638995868	59
1	627	71.955346517448	60
1	639	72.820644476312	59
1	640	72.95397684744	60
1	655	74.666141148261	59
1	657	75.300588854911	58
1	662	75.661146628705	59
1	673	77.339087869775	58
1	674	77.506643300654	59
1	677	78.141091007304	60
1	682	78.501648781098	59
1	701	79.938771029698	58
1	703	80.179590022168	59
1	704	80.347145453047	60
1	713	81.342150933491	59
1	724	82.779273182091	60
1	728	83.020092174561	59
1	733	84.182653085884	60
1	741	85.860594326954	59
1	753	87.766438333534	58
1	757	88.701096479347	59
1	767	90.606940485927	60
1	775	91.54159863174	59
1	786	94.382100784133	60
1	799	97.422457736863	59
1	813	100.018786666896	58
1	815	100.262959889256	59
1	829	102.859288819289	60
1	840	103.103462041649	59
1	850	105.462326209102	58
1	852	105.535790414752	57
1	853	105.943964194042	58
1	861	107.474723017685	57
1	866	108.302828361495	58
1	868	108.376292567145	59
1	871	108.425474626544	58
1	873	108.784466346435	59
1	883	110.315225170078	60
1	887	111.143330513888	59
1	889	111.216794719538	60
1	890	111.265976778937	59
1	893	111.624968498828	60
1	904	113.983832666281	59
1	906	114.10647893133	60
1	923	116.824334818674	59
1	935	119.664836971067	60
1	964	123.801996273814	59
1	967	124.52348333362	58
1	972	125.034209144826	57
1	981	126.642498426207	58
1	984	126.691680485606	57
1	991	127.363985486013	58
1	998	127.874711297219	59
1	1007	129.4830005786	60
1	1009	129.532182637999	59
1	1013	130.204487638406	60
1	1019	130.715213449612	59
1	1033	132.082683738523	58
1	1035	132.372684790392	59
1	1043	133.555715602005	60
1	1051	134.923185890916	59
1	1053	135.213186942785	60
1	1070	137.763688043309	59
1	1093	140.604190195702	60
1	1121	145.639185460987	59
1	1135	148.47968761338	60
1	1151	149.510533016463	59
1	1168	152.351035168856	60
1	1172	152.67817573955	59
1	1195	155.518677891943	60
1	1198	155.567859951342	59
1	1211	158.408362103735	60
1	1231	161.280528333706	59
1	1247	164.121030486099	60
1	1281	169.320396805945	59
1	1284	169.568463114895	58
1	1301	172.160898958338	59
1	1308	172.408965267288	60
1	1315	172.945359633351	59
1	1318	173.532876667068	58
1	1321	175.001401110731	59
1	1324	175.05058317013	58
1	1332	175.785861785744	59
1	1339	176.373378819461	60
1	1344	177.841903263124	59
1	1345	177.891085322523	60
1	1350	178.626363938137	59
1	1364	180.682405415517	60
1	1367	181.46686609053	59
1	1371	182.81381088746	58
1	1378	184.307368242923	59
1	1381	185.654313039853	60
1	1384	185.703495099252	59
1	1392	187.147870395316	60
1	1403	188.543997251645	59
1	1417	191.384499404038	60
1	1431	193.376250672361	59
1	1446	196.216752824754	60
1	1457	198.037573333792	59
1	1477	200.878075486185	60
1	1489	202.745969354854	59
1	1503	205.345652514777	58
1	1505	205.586471507247	59
1	1519	208.18615466717	60
1	1525	208.42697365964	59
1	1531	210.545018834623	58
1	1532	211.267475812033	59
1	1548	213.385520987016	60
1	1562	214.107977964426	59
1	1579	216.948480116819	60
1	1599	222.542270000516	59
1	1604	223.543434634238	58
1	1608	225.382772152909	59
1	1617	226.383936786631	60
1	1631	228.223274305302	59
1	1636	228.742800954084	58
1	1644	231.063776457695	59
1	1645	231.583303106477	60
1	1648	231.632485165876	59
1	1659	233.904278610088	60
1	1662	234.472987318269	59
1	1667	234.794618333878	58
1	1678	237.313489470662	59
1	1679	237.635120486271	60
1	1694	240.153991623055	59
1	1719	242.994493775448	60
1	1740	245.887634095894	59
1	1743	247.04696666724	58
1	1753	248.728136248287	59
1	1760	249.887468819633	60
1	1766	251.56863840068	59
1	1770	252.487151979556	58
1	1772	254.409140553073	59
1	1777	255.327654131949	60
1	1787	257.249642705466	59
1	1795	258.152898757235	58
1	1809	260.090144857859	59
1	1812	260.993400909628	60
1	1815	261.042582969027	59
1	1822	262.626857861439	58
1	1823	262.930647010252	59
1	1833	263.88308512142	60
1	1839	264.077156367349	59
1	1846	265.467360013832	60
1	1847	265.771149162645	59
1	1851	266.917658519742	60
1	1863	268.611651315038	59
1	1876	271.452153467431	60
1	1897	273.22071633119	59
1	1907	275.625273661054	58
1	1913	276.061218483583	59
1	1916	276.110400542982	58
1	1930	278.224956820977	57
1	1931	278.465775813447	58
1	1934	278.901720635976	59
1	1936	278.950902695375	60
1	1950	280.8246399809	59
1	1951	281.06545897337	60
1	1954	281.30627796584	59
1	1955	281.742222788369	60
1	1960	283.665142133293	59
1	1963	283.804011667326	58
1	1965	284.146780118233	59
1	1979	286.505644285686	60
1	1984	286.644513819719	59
1	1987	286.987282270626	60
1	1989	287.644124932345	59
1	1994	288.288533905145	58
1	2003	289.485015972112	59
1	2007	290.484627084738	60
1	2010	291.129036057538	59
1	2024	292.325518124505	60
1	2034	293.969538209931	59
1	2047	296.056360000688	58
1	2055	296.810040362324	59
1	2058	298.896862153081	60
1	2071	299.650542514717	59
1	2081	301.622105260284	58
1	2085	302.49104466711	59
1	2091	304.221788420207	58
1	2094	304.462607412677	59
1	2097	305.331546819503	60
1	2109	307.0622905726	59
1	2110	307.30310956507	60
1	2136	309.902792724993	59
1	2155	312.743294877386	60
1	2190	318.424169053055	59
1	2202	321.264671205448	60
1	2225	326.464037525294	59
1	2232	329.304539677687	60
1	2247	331.986741969343	59
1	2271	334.827244121736	60
1	2308	345.903962646789	59
1	2318	348.559804200965	58
1	2319	348.744464799182	59
1	2322	348.793646858581	58
1	2331	351.400306353358	59
1	2334	351.449488412757	58
1	2336	351.584966951575	59
1	2338	351.634149010974	60
1	2341	351.934188638059	59
1	2342	354.240808505751	60
1	2345	354.28999056515	59
1	2346	354.425469103968	60
1	2349	354.774690790452	59
1	2364	357.130492717543	60
1	2369	357.318101667498	59
1	2372	357.615192942845	60
1	2374	358.345030627333	59
1	2382	360.158603819891	60
1	2385	361.185532779726	59
1	2390	362.332921277751	58
1	2401	363.62762177492	57
1	2402	364.026034932119	58
1	2406	364.932604437674	57
1	2407	365.173423430144	58
1	2409	366.468123927313	59
1	2412	366.517305986712	58
1	2414	366.866537084512	59
1	2420	367.532287597597	58
1	2422	368.013925582537	59
1	2424	369.308626079706	60
1	2434	369.707039236905	59
1	2436	370.13197075752	58
1	2437	370.85442773493	59
1	2440	372.547541389298	60
1	2448	373.694929887323	59
1	2461	376.535432039716	60
1	2496	381.822798334222	59
1	2505	384.663300486615	60
1	2523	389.862666806461	59
1	2539	392.462349966384	58
1	2540	392.703168958854	59
1	2548	393.76325692283	58
1	2551	394.075146667584	57
1	2556	395.543671111247	58
1	2572	398.38417326364	59
1	2583	401.224675416033	60
1	2589	402.687647664331	59
1	2594	403.583539583486	58
1	2603	405.528149816724	59
1	2609	406.327495000946	58
1	2613	408.368651969117	59
1	2620	408.782905903332	58
1	2623	408.831074496785	57
1	2627	411.20915412151	58
1	2630	411.382589063255	57
1	2641	414.049656273903	58
1	2650	416.890158426296	59
1	2653	416.939340485695	58
1	2659	418.579843334308	57
1	2664	419.181638543024	56
1	2665	419.730660578689	57
1	2680	422.571162731082	58
1	2687	423.89889207074	57
1	2689	424.38100486287	56
1	2694	425.411664883475	57
1	2703	426.980688022793	56
1	2707	428.252167035868	57
1	2710	428.301349095267	56
1	2718	430.83219166767	55
1	2719	431.092669188261	56
1	2737	433.933171340654	57
1	2746	436.773673493047	58
1	2761	438.966709644695	57
1	2762	439.61417564544	58
1	2765	439.979103822408	57
1	2774	442.454677797833	58
1	2791	445.295179950226	59
1	2794	445.344362009625	58
1	2805	448.135682102619	59
1	2818	449.821584794323	58
1	2824	450.976184255012	59
1	2827	452.977519622023	58
1	2833	453.816686407405	59
1	2856	456.657188559798	60
1	2863	458.176885941869	59
1	2868	461.017388094262	60
1	2890	463.376252261715	59
1	2895	465.975935421638	58
1	2899	466.216754414108	59
1	2905	467.589236667756	58
1	2911	469.057256566501	59
1	2915	469.102344792605	58
1	2927	471.897758718894	59
1	2936	473.774984901407	58
1	2944	474.738260871287	59
1	2947	474.787442930686	58
1	2956	477.57876302368	59
1	2966	478.974351221253	58
1	2969	479.841585001118	57
1	2970	480.419265176073	58
1	2981	483.259767328466	59
1	2997	486.100269480859	60
1	3004	486.773400701022	59
1	3006	489.373083860945	58
1	3007	489.613902853415	59
1	3019	491.972767020868	58
1	3023	492.454405005808	59
1	3029	495.294907158201	60
1	3065	499.771816500637	59
1	3075	502.61231865303	60
1	3088	504.971182820483	59
1	3098	507.811684972876	60
1	3128	514.30579751447	59
1	3142	517.146299666863	60
1	3186	525.768648099867	59
1	3195	528.60915025226	60
1	3206	529.373615088425	59
1	3216	532.214117240818	60
1	3222	532.263299300217	59
1	3236	535.10380145261	60
1	3267	541.103326667928	59
1	3274	543.943828820321	60
1	3283	544.089459054307	59
1	3302	546.9299612067	60
1	3320	551.765479699097	59
1	3326	553.35567500129	58
1	3337	554.36516285902	57
1	3338	554.60598185149	58
1	3350	557.446484003883	59
1	3361	559.509250236335	58
1	3363	559.564529178866	57
1	3364	560.286986156276	58
1	3382	563.127488308669	59
1	3385	563.176670368068	58
1	3394	564.763895498712	57
1	3400	565.967990461062	58
1	3413	567.363578658635	57
1	3424	568.808492613455	58
1	3429	569.963261818558	57
1	3431	571.648994765848	58
1	3442	574.489496918241	59
1	3447	574.57706781029	58
1	3452	575.162628138404	57
1	3458	577.329999070634	58
1	3466	577.860371668014	57
1	3469	580.170501223027	58
1	3472	580.219683282426	57
1	3475	580.36199445825	56
1	3493	582.961677618173	55
1	3494	583.01100337542	56
1	3503	585.851505527813	57
1	3514	588.161043938019	56
1	3516	588.692007680206	57
1	3528	590.112720001376	56
1	3530	590.760727097942	55
1	3534	591.532509832599	56
1	3543	594.373011984992	57
1	3554	597.213514137385	58
1	3576	600.054016289778	59
1	3590	602.894518442171	60
1	3597	603.759142897557	59
1	3609	606.35882605748	58
1	3615	606.59964504995	59
1	3620	609.440147202343	60
1	3684	621.956925017018	59
1	3694	624.797427169411	60
1	3697	624.84660922881	59
1	3710	626.869765001462	58
1	3712	627.156291336864	57
1	3717	627.687111381203	58
1	3723	630.527613533596	59
1	3745	633.368115685989	60
1	3754	634.84833810611	59
1	3756	634.955340816633	58
1	3761	637.688840258503	59
1	3764	637.738022317902	58
1	3776	639.122113334824	57
1	3781	640.529342410896	58
1	3788	643.369844563289	59
1	3794	645.354073456325	58
1	3795	646.210346715682	59
1	3807	649.050848868075	60
1	3829	651.374461668186	59
1	3841	654.214963820579	60
1	3849	655.752806096017	59
1	3854	658.35248925594	58
1	3855	658.59330824841	59
1	3866	661.433810400803	60
1	3882	663.626810001548	59
1	3898	666.467312153941	60
1	3912	668.751221895632	59
1	3921	671.591724048025	60
1	3934	675.87915833491	59
1	3937	678.719660487303	60
1	3940	679.149954535324	59
1	3963	681.990456687717	60
1	3988	685.491270444283	59
1	4007	688.331772596676	60
1	4015	689.548687175016	59
1	4020	692.389189327409	60
1	4027	694.748053494862	59
1	4033	695.11960840193	58
1	4043	697.347736654785	57
1	4045	697.588555647255	58
1	4048	697.637737706654	57
1	4065	700.429057799648	58
1	4068	700.478239859047	57
1	4074	702.547102974631	56
1	4077	703.269559952041	57
1	4090	706.110062104434	58
1	4098	708.950564256827	59
1	4108	710.187425975885	58
1	4118	711.79106640922	59
1	4128	714.631568561613	60
1	4134	715.545518774246	59
1	4146	718.145201934169	58
1	4148	718.386020926639	59
1	4160	721.226523079032	60
1	4168	723.344568254015	59
1	4173	724.888551668358	58
1	4182	726.185070406408	59
1	4198	729.025572558801	60
1	4218	733.743300893707	59
1	4223	736.34298405363	58
1	4224	736.5838030461	59
1	4241	739.424305198493	60
1	4249	740.323061123795	59
1	4259	743.163563276188	60
1	4285	749.393248335082	59
1	4299	752.233750487475	60
1	4314	754.540766173091	59
1	4327	757.381268325484	60
1	4358	761.645596668444	59
1	4362	762.33981565286	58
1	4363	764.486098820837	59
1	4379	767.32660097323	60
1	4418	773.897945001806	59
1	4421	775.338231452475	58
1	4428	776.738447154199	59
1	4441	779.578949306592	60
1	4452	780.537597772321	59
1	4457	783.378099924714	60
1	4462	783.427281984113	59
1	4471	785.52651384566	58
1	4473	785.736964092167	57
1	4477	786.267784136506	58
1	4483	788.33664725209	57
1	4484	789.108286288899	58
1	4497	791.948788441292	59
1	4516	794.789290593685	60
1	4522	794.838472653084	59
1	4526	796.135696731859	58
1	4534	797.678974805477	59
1	4538	798.40264166853	58
1	4543	800.51947695787	59
1	4569	803.359979110263	60
1	4572	803.934746211628	59
1	4579	806.775248364021	60
1	4606	810.654990001892	59
1	4611	811.733795691397	58
1	4616	813.495492154285	59
1	4630	815.66214899357	58
1	4631	816.335994306678	59
1	4634	816.385176366077	58
1	4640	819.176496459071	59
1	4648	822.016998611464	60
1	4670	824.732211491012	59
1	4685	827.572713643405	60
1	4691	829.931577810858	59
1	4699	830.729966567525	58
1	4704	832.772079963251	59
1	4716	835.612582115644	60
1	4719	835.661764175043	59
1	4734	837.730627290627	58
1	4738	838.502266327436	59
1	4747	841.342768479829	60
1	4768	845.529676770396	59
1	4772	845.79778414148	58
1	4780	847.412035001978	57
1	4782	848.129359930319	56
1	4783	848.370178922789	57
1	4796	851.210681075182	58
1	4799	851.259863134581	57
1	4809	853.328726250165	56
1	4814	854.051183227575	57
1	4830	856.891685379968	58
1	4833	856.940867439367	57
1	4841	858.528092570011	56
1	4846	859.66438333534	55
1	4847	859.732187532361	56
1	4853	860.865601715435	55
1	4856	862.572689684754	56
1	4867	865.413191837147	57
1	4880	868.25369398954	58
1	4884	868.926825209703	57
1	4888	871.094196141933	58
1	4911	873.934698294326	59
1	4917	873.983880353725	58
1	4920	874.126191529549	57
1	4928	875.93341928939	56
1	4931	876.775200446719	57
1	4944	879.615702599112	58
1	4951	881.925241009318	57
1	4954	882.456204751505	58
1	4967	885.296706903898	59
1	4970	885.345888963297	58
1	4988	888.137209056291	59
1	5002	890.977711208684	60
1	5037	896.421428335426	59
1	5041	897.523339968856	58
1	5045	899.261930487819	59
1	5063	902.102432640212	60
1	5088	906.0690544373	59
1	5098	907.922072608548	58
1	5106	908.673776668788	57
1	5107	908.909556589693	58
1	5113	910.521755768471	57
1	5117	911.750058742086	58
1	5121	913.121438928394	57
1	5127	914.590560894479	58
1	5135	917.431063046872	59
1	5146	920.271565199265	60
1	5163	921.160956094243	59
1	5181	924.001458246636	60
1	5188	926.119854728009	59
1	5198	928.960356880402	60
1	5223	933.178473335512	59
1	5225	933.918904207778	58
1	5235	936.018975487905	59
1	5255	938.859477640298	60
1	5275	944.31763684747	59
1	5289	947.158138999863	60
1	5307	952.116686327239	59
1	5322	954.957188479632	60
1	5339	957.316052647085	59
1	5345	960.156554799478	60
1	5368	966.34032473312	59
1	5370	967.714785286777	58
1	5374	969.180826885513	59
1	5377	969.230008944912	58
1	5389	969.935518335598	57
1	5397	972.021329037906	58
1	5413	974.861831190299	59
1	5425	977.702333342692	60
1	5428	978.113517926469	59
1	5436	980.954020078862	60
1	5447	982.18786666896	59
1	5461	985.028368821353	60
1	5506	996.47595988103	59
1	5520	999.316462033423	60
1	5523	999.365644092822	59
1	5538	1002.206146245215	60
1	5569	1009.309715845545	59
1	5580	1012.150217997938	60
1	5588	1014.509082165391	59
1	5597	1017.349584317784	60
1	5607	1018.944911669046	59
1	5624	1021.785413821439	60
1	5627	1022.30813164516	59
1	5637	1025.148633797553	60
1	5644	1026.61159502894	59
1	5653	1029.452097181333	60
1	5656	1029.501279240732	59
1	5659	1030.107181124929	58
1	5665	1031.197260002408	57
1	5666	1032.341781393125	58
1	5678	1035.182283545518	59
1	5683	1035.306547444775	58
1	5687	1038.022785697911	59
1	5695	1038.995798919223	58
1	5703	1040.863287850304	59
1	5714	1041.679412602895	58
1	5719	1043.44960833577	57
1	5720	1043.703790002697	58
1	5727	1046.54429215509	59
1	5743	1049.384794307483	60
1	5754	1050.904646404313	59
1	5760	1053.504329564236	58
1	5761	1053.745148556706	59
1	5773	1056.585650709099	60
1	5778	1056.74723017685	59
1	5787	1059.587732329243	60
1	5812	1062.562767484219	59
1	5819	1065.403269636612	60
1	5839	1067.954305002494	59
1	5851	1070.794807154887	60
1	5857	1071.815047750805	59
1	5864	1074.655549903198	60
1	5915	1084.700527483312	59
1	5920	1086.129736049215	58
1	5930	1087.300210643235	57
1	5932	1087.541029635705	58
1	5939	1089.899893803158	57
1	5940	1090.381531788098	58
1	5957	1093.222033940491	59
1	5968	1096.062536092884	60
1	5983	1100.29862644285	59
1	5986	1101.950682898715	58
1	5990	1103.139128595243	59
1	5999	1104.71135000258	58
1	6004	1105.497992762696	57
1	6008	1105.979630747636	58
1	6018	1108.097675922619	57
1	6021	1108.820132900029	58
1	6031	1111.660635052422	59
1	6046	1113.297042242465	58
1	6047	1114.501137204815	59
1	6054	1115.896725402388	58
1	6061	1116.963698335942	57
1	6065	1117.341639357208	58
1	6077	1120.182141509601	59
1	6087	1123.022643661994	60
1	6122	1131.494824361926	59
1	6149	1134.335326514319	60
1	6163	1139.293873841695	59
1	6173	1141.893557001618	58
1	6174	1142.134375994088	59
1	6183	1144.493240161541	58
1	6186	1144.974878146481	59
1	6196	1147.15413562058	58
1	6202	1147.815380298874	59
1	6210	1149.692606481387	58
1	6213	1150.655882451267	59
1	6226	1153.49638460366	60
1	6231	1153.720743336028	59
1	6240	1156.561245488421	60
1	6246	1156.830641744203	59
1	6251	1157.491655961156	58
1	6254	1159.671143896596	59
1	6273	1162.221953194535	58
1	6277	1162.511646048989	59
1	6292	1165.352148201382	60
1	6298	1165.401330260781	59
1	6307	1168.241832413174	60
1	6319	1170.490071760771	59
1	6326	1173.330573913164	60
1	6354	1178.225440002752	59
1	6356	1178.28912124054	58
1	6364	1180.397610309199	57
1	6368	1181.065942155145	58
1	6384	1183.488487560386	57
1	6387	1183.906444307538	58
1	6394	1186.088170720309	57
1	6395	1186.746946459931	58
1	6401	1189.587448612324	59
1	6422	1192.427950764717	60
1	6426	1193.887220200078	59
1	6440	1196.727722352471	60
1	6454	1199.086586519924	59
1	6457	1201.686269679847	58
1	6458	1201.927088672317	59
1	6473	1203.964578874195	58
1	6477	1204.76759082471	59
1	6483	1204.816772884109	58
1	6501	1207.4254059164	57
1	6502	1207.608092977103	58
1	6508	1210.448595129496	59
1	6526	1213.289097281889	60
1	6529	1213.338279341288	59
1	6537	1214.982485002838	58
1	6540	1216.178781493681	59
1	6557	1219.019283646074	60
1	6562	1219.884051799308	59
1	6568	1222.724553951701	60
1	6604	1230.282784439	59
1	6614	1233.123286591393	60
1	6620	1235.482150758846	59
1	6626	1238.081833918769	58
1	6627	1238.322652911239	59
1	6638	1239.487181669562	58
1	6643	1241.163155063632	59
1	6659	1244.003657216025	60
1	6683	1248.480566558461	59
1	6690	1251.080249718384	58
1	6691	1251.321068710854	59
1	6701	1252.628858638265	58
1	6707	1254.161570863247	59
1	6718	1257.00207301564	60
1	6754	1264.078665517999	59
1	6758	1266.919167670392	60
1	6761	1266.968349729791	59
1	6774	1269.278031837845	58
1	6777	1269.808851882184	59
1	6786	1272.649354034577	60
1	6795	1274.477398157691	59
1	6803	1274.665484569183	58
1	6810	1276.244226669648	57
1	6817	1277.317900310084	58
1	6830	1280.158402462477	59
1	6844	1282.764493786175	58
1	6847	1282.99890461487	59
1	6858	1285.839406767263	60
1	6890	1292.675180277152	59
1	6892	1295.274863437075	58
1	6893	1295.515682429545	59
1	6896	1295.564864488944	58
1	6906	1297.83231136013	57
1	6912	1298.356184581938	58
1	6928	1301.196686734331	59
1	6941	1304.037188886724	60
1	6946	1304.086370946123	59
1	6952	1306.926873098516	60
1	7049	1326.471061356151	59
1	7052	1327.96794650804	58
1	7058	1329.311563508544	59
1	7070	1332.152065660937	60
1	7093	1337.505968336458	59
1	7108	1340.346470488851	60
1	7128	1344.668843475612	59
1	7147	1347.509345628005	60
1	7176	1355.067576115304	59
1	7184	1357.667259275227	58
1	7185	1357.908078267697	59
1	7200	1360.74858042009	60
1	7207	1362.010665003182	59
1	7214	1364.851167155575	60
1	7258	1373.171399229905	59
1	7273	1374.263013336544	58
1	7282	1376.011901382298	59
1	7289	1378.852403534691	60
1	7298	1381.064407714534	59
1	7311	1383.904909866927	60
1	7323	1386.515361669906	59
1	7331	1388.23921680386	58
1	7337	1389.355863822299	59
1	7348	1392.196365974692	60
1	7355	1394.062823514149	59
1	7367	1396.662506674072	58
1	7368	1396.903325666542	59
1	7377	1398.767710003268	58
1	7383	1399.743827818935	59
1	7392	1401.861872993918	58
1	7393	1402.584329971328	59
1	7402	1403.307034377815	58
1	7410	1405.424832123721	59
1	7414	1408.265334276114	60
1	7458	1417.459971953456	59
1	7461	1418.37485195177	58
1	7463	1420.059655113379	57
1	7464	1420.300474105849	58
1	7467	1420.349656165248	57
1	7478	1423.140976258242	58
1	7483	1423.272406669992	57
1	7490	1425.981478410635	58
1	7497	1427.858704593148	57
1	7498	1428.821980563028	58
1	7507	1431.662482715421	59
1	7519	1433.442669525725	58
1	7522	1434.502984867814	59
1	7530	1435.524755003354	58
1	7538	1437.343487020207	59
1	7541	1437.392669079606	58
1	7562	1440.1839891726	59
1	7567	1440.857120392763	58
1	7568	1443.024491324993	59
1	7571	1443.456803552686	58
1	7577	1445.864993477386	59
1	7587	1447.777103336716	58
1	7593	1448.705495629779	59
1	7604	1451.255853032455	58
1	7609	1451.545997782172	59
1	7623	1454.386499934565	60
1	7647	1460.029451670078	59
1	7649	1461.654585672147	58
1	7654	1462.869953822471	59
1	7661	1463.578304673635	58
1	7670	1465.710455974864	59
1	7685	1468.550958127257	60
1	7688	1468.600140186656	59
1	7700	1471.440642339049	60
1	7703	1472.053318311839	59
1	7709	1472.28180000344	58
1	7717	1474.653001471762	57
1	7718	1474.893820464232	58
1	7727	1477.734322616625	59
1	7734	1478.64612224759	58
1	7742	1480.574824769018	59
1	7751	1482.452050951531	58
1	7752	1483.415326921411	59
1	7755	1483.46450898081	58
1	7770	1486.255829073804	59
1	7784	1487.651417271377	58
1	7787	1489.096331226197	59
1	7796	1491.93683337859	60
1	7809	1493.713939821545	59
1	7818	1495.450466751146	58
1	7819	1496.554441973938	59
1	7822	1496.603624033337	58
1	7826	1496.786496670164	57
1	7831	1499.394944126331	58
1	7837	1500.649833070992	57
1	7847	1502.235446278724	58
1	7854	1505.075948431117	59
1	7864	1507.91645058351	60
1	7880	1509.038845003526	59
1	7890	1511.879347155919	60
1	7898	1513.648248870607	59
1	7906	1516.488751023	60
1	7916	1518.847615190453	59
1	7931	1521.447298350376	58
1	7932	1521.688117342846	59
1	7942	1523.849574969455	58
1	7945	1524.528619495239	59
1	7954	1527.369121647632	60
1	7978	1533.54354167025	59
1	8001	1536.384043822643	60
1	8011	1538.91739254341	59
1	8017	1541.757894695803	60
1	8020	1541.807076755202	59
1	8034	1544.647578907595	60
1	8043	1545.795890003612	59
1	8053	1548.636392156005	60
1	8058	1550.043813109529	59
1	8073	1552.643496269452	58
1	8077	1552.884315261922	59
1	8081	1553.985210117365	58
1	8086	1555.724817414315	59
1	8102	1557.842862589298	58
1	8109	1558.565319566708	59
1	8118	1561.405821719101	60
1	8143	1568.24159522899	59
1	8158	1570.841278388913	58
1	8161	1571.082097381383	59
1	8175	1573.922599533776	60
1	8178	1573.971781593175	59
1	8186	1576.040644708759	58
1	8190	1576.812283745568	59
1	8196	1578.640327868682	58
1	8202	1579.652785897961	59
1	8212	1582.493288050354	60
1	8217	1582.552935003698	59
1	8232	1585.393437156091	60
1	8262	1591.638743668297	59
1	8273	1594.23842682822	58
1	8274	1594.47924582069	59
1	8279	1594.80528333706	58
1	8285	1597.319747973083	59
1	8292	1599.18866283923	58
1	8298	1600.160250125476	59
1	8313	1603.000752277869	60
1	8332	1607.057631670422	59
1	8343	1609.836525787758	58
1	8345	1609.898133822815	59
1	8354	1612.738635975208	60
1	8368	1614.256480413185	59
1	8376	1617.096982565578	60
1	8379	1617.146164624977	59
1	8382	1617.635575267527	58
1	8396	1619.98666677737	59
1	8407	1622.827168929763	60
1	8411	1622.834941587373	59
1	8416	1625.675443739766	60
1	8424	1628.034307907219	59
1	8439	1630.633991067142	58
1	8441	1630.874810059612	59
1	8453	1633.715312212005	60
1	8465	1635.833357386988	59
1	8473	1638.673859539381	60
1	8480	1641.032723706834	59
1	8491	1643.632406866757	58
1	8494	1643.814676670508	57
1	8495	1643.873225859227	58
1	8500	1644.392115561095	57
1	8505	1646.71372801162	58
1	8517	1648.831773186603	57
1	8521	1649.554230164013	58
1	8539	1652.394732316406	59
1	8554	1655.235234468799	60
1	8576	1659.45993313505	59
1	8586	1662.300435287443	60
1	8589	1662.349617346842	59
1	8607	1665.190119499235	60
1	8614	1667.029555306064	59
1	8623	1668.319373337232	58
1	8625	1669.629238465987	57
1	8626	1669.870057458457	58
1	8637	1672.71055961085	59
1	8655	1675.551061763243	60
1	8661	1677.428287945756	59
1	8674	1680.268790098149	60
1	8679	1680.571721670594	59
1	8684	1683.412223822987	60
1	8714	1690.426703745371	59
1	8729	1693.267205897764	60
1	8759	1700.825436385063	59
1	8767	1703.425119544986	58
1	8768	1703.665938537456	59
1	8774	1704.663385856915	58
1	8790	1706.024802704909	57
1	8791	1706.506440689849	58
1	8797	1708.624485864832	57
1	8800	1709.346942842242	58
1	8811	1712.187444994635	59
1	8814	1712.236627054034	58
1	8822	1713.823852184678	57
1	8824	1715.027947147028	58
1	8831	1716.423535344601	57
1	8834	1717.32876667068	56
1	8837	1717.868449299421	57
1	8854	1720.708951451814	58
1	8869	1723.549453604207	59
1	8880	1726.3899557566	60
1	8952	1741.833463337404	59
1	8960	1744.673965489797	60
1	8982	1750.2194164236	59
1	8993	1753.059918575993	60
1	9001	1754.085811670766	59
1	9020	1756.926313823159	60
1	9029	1758.018465903369	59
1	9042	1760.618149063292	58
1	9044	1760.858968055762	59
1	9056	1763.217832223215	58
1	9057	1763.699470208155	59
1	9068	1766.338160004128	58
1	9069	1766.539972360548	59
1	9083	1769.380474512941	60
1	9110	1773.616564862907	59
1	9120	1776.21624802283	58
1	9121	1776.4570670153	59
1	9140	1779.297569167693	60
1	9147	1780.00247372669	59
1	9152	1782.842975879083	60
1	9155	1782.892157938482	59
1	9166	1785.732660090875	60
1	9171	1786.614980662522	59
1	9177	1789.455482814915	60
1	9180	1789.504664874314	59
1	9204	1792.345167026707	60
1	9218	1795.070291300645	59
1	9229	1797.910793453038	60
1	9242	1802.21307962206	59
1	9247	1803.095205004214	58
1	9256	1805.053581774453	59
1	9270	1807.412445941906	58
1	9271	1807.894083926846	59
1	9285	1810.734586079239	60
1	9364	1827.599901670938	59
1	9366	1828.20991122129	58
1	9373	1830.440403823331	59
1	9391	1833.280905975724	60
1	9416	1839.8522500043	59
1	9444	1842.692752156693	60
1	9483	1854.20674282052	59
1	9492	1855.341561596465	58
1	9494	1856.806425980443	57
1	9498	1857.047244972913	58
1	9511	1859.887747125306	59
1	9526	1862.005792300289	58
1	9529	1862.728249277699	59
1	9539	1865.568751430092	60
1	9559	1870.40937917042	59
1	9570	1873.249881322813	60
1	9573	1873.299063382212	59
1	9591	1876.139565534605	60
1	9623	1885.477196744375	59
1	9636	1887.406667259079	58
1	9639	1888.002623899519	57
1	9640	1888.317698896768	58
1	9643	1888.366880956167	57
1	9660	1891.158201049161	58
1	9670	1893.998703201554	59
1	9679	1895.801673379288	58
1	9683	1896.839205353947	59
1	9694	1899.67970750634	60
1	9699	1900.54501431833	59
1	9704	1901.11399167111	58
1	9709	1903.385516470723	59
1	9712	1903.434698530122	58
1	9733	1906.226018623116	59
1	9743	1908.800089178903	58
1	9744	1909.066520775509	59
1	9764	1911.907022927902	60
1	9834	1925.618688337834	59
1	9845	1928.459190490227	60
1	9848	1929.597554458287	59
1	9867	1932.43805661068	60
1	9883	1937.396603938056	59
1	9902	1940.237106090449	60
1	9907	1942.595970257902	59
1	9920	1945.436472410295	60
1	9942	1950.395019737671	59
1	9949	1953.235521890064	60
1	9964	1955.594386057517	59
1	9976	1958.43488820991	60
1	9989	1960.793752377363	59
1	10003	1963.634254529756	60
1	10043	1973.792168176978	59
1	10051	1974.628081671282	58
1	10056	1975.884102188105	57
1	10059	1976.632670329371	58
1	10062	1976.68185238877	57
1	10074	1979.473172481764	58
1	10088	1982.313674634157	59
1	10102	1985.15417678655	60
1	10108	1986.790583976593	59
1	10125	1989.631086128986	60
1	10131	1990.95191976206	59
1	10133	1991.989950296439	58
1	10138	1993.792421914453	59
1	10154	1996.632924066846	60
1	10173	1999.788999776208	59
1	10184	2002.629501928601	60
1	10193	2004.988366096054	59
1	10201	2006.019737336015	58
1	10203	2007.588049255977	57
1	10204	2007.828868248447	58
1	10214	2010.66937040084	59
1	10221	2011.385126671368	58
1	10233	2013.509872553233	59
1	10246	2016.350374705626	60
1	10262	2020.586465055592	59
1	10275	2023.426967207985	60
1	10279	2023.63747500473	59
1	10289	2025.785831375438	58
1	10292	2026.477977157123	59
1	10302	2029.318479309516	60
1	10309	2030.985197695284	59
1	10318	2033.825699847677	60
1	10332	2035.889823338092	59
1	10343	2038.730325490485	60
1	10346	2038.784247175053	59
1	10353	2041.624749327446	60
1	10368	2046.583296654822	59
1	10373	2048.142171671454	58
1	10375	2049.182979814745	57
1	10376	2049.423798807215	58
1	10393	2052.264300959608	59
1	10413	2055.104803112001	60
1	10422	2056.982029294514	59
1	10433	2059.822531446907	60
1	10443	2062.18139561436	59
1	10456	2065.021897766753	60
1	10466	2066.291007631835	59
1	10478	2067.380761934206	58
1	10481	2069.131509784228	59
1	10491	2071.972011936621	60
1	10506	2075.179811413975	59
1	10514	2077.779494573898	58
1	10515	2078.020313566368	59
1	10531	2080.860815718761	60
1	10562	2085.578544053667	59
1	10570	2088.41904620606	60
1	10578	2093.377593533436	59
1	10589	2096.218095685829	60
1	10594	2096.426642779745	59
1	10602	2098.576959853282	58
1	10607	2099.267144932138	59
1	10625	2102.107647084531	60
1	10666	2111.4944603537	59
1	10677	2114.17505881282	58
1	10678	2114.334962506093	59
1	10697	2117.175464658486	60
1	10705	2119.374425132666	59
1	10712	2121.656261671626	58
1	10715	2122.214927285059	59
1	10734	2125.055429437452	60
1	10740	2126.562277927655	59
1	10748	2129.402780080048	60
1	10751	2129.451962139447	59
1	10754	2129.773157772358	58
1	10769	2132.29246429184	59
1	10772	2132.372840932281	58
1	10778	2133.908610004988	57
1	10786	2135.132966444233	58
1	10797	2137.572207252127	57
1	10799	2137.973468596626	58
1	10802	2138.022650656025	57
1	10808	2140.17189041205	56
1	10809	2140.813970749019	57
1	10827	2143.654472901412	58
1	10848	2146.494975053805	59
1	10867	2149.335477206198	60
1	10896	2155.769989371588	59
1	10900	2156.697913075565	58
1	10910	2158.413306671712	57
1	10911	2158.610491523981	58
1	10919	2161.450993676374	59
1	10922	2161.500175735773	58
1	10941	2164.291495828767	59
1	10955	2167.13199798116	60
1	10971	2170.210290039031	59
1	10977	2171.368088331126	58
1	10987	2173.050792191424	59
1	10998	2175.891294343817	60
1	11001	2175.940476403216	59
1	11010	2178.780978555609	60
1	11013	2179.167137810895	59
1	11027	2181.766820970818	58
1	11028	2182.007639963288	59
1	11034	2182.918003338436	58
1	11039	2184.366504130741	57
1	11040	2184.848142115681	58
1	11057	2187.688644268074	59
1	11071	2190.529146420467	60
1	11087	2193.777258604027	59
1	11097	2195.170351671798	58
1	11103	2196.61776075642	59
1	11116	2199.458262908813	60
1	11130	2201.90136579743	59
1	11134	2202.564286250202	58
1	11140	2204.741867949823	59
1	11143	2204.791050009222	58
1	11154	2207.42270000516	57
1	11155	2207.582370102216	58
1	11165	2210.422872254609	59
1	11176	2213.263374407002	60
1	11197	2217.344227169023	59
1	11205	2218.16238520974	58
1	11211	2220.184729321416	59
1	11220	2223.025231473809	60
1	11255	2231.160801009355	59
1	11260	2231.927396671884	58
1	11275	2234.001303161748	59
1	11285	2236.360167329201	58
1	11286	2236.841805314141	59
1	11294	2239.682307466534	60
1	11322	2244.15921680897	59
1	11325	2244.179745005246	58
1	11330	2246.999718961363	59
1	11346	2249.840221113756	60
1	11354	2251.958266288739	59
1	11364	2254.557949448662	58
1	11365	2254.798768441132	59
1	11379	2257.639270593525	60
1	11382	2257.688452652924	59
1	11391	2260.528954805317	60
1	11400	2262.17263609325	59
1	11417	2265.013138245643	60
1	11428	2267.556365248277	59
1	11434	2268.68444167197	58
1	11438	2270.1560484082	57
1	11440	2270.39686740067	58
1	11451	2273.237369553063	59
1	11465	2276.077871705456	60
1	11493	2280.936790005332	59
1	11506	2283.777292157725	60
1	11529	2288.353830527661	59
1	11536	2290.953513687584	58
1	11537	2291.194332680054	59
1	11559	2293.553196847507	58
1	11563	2294.034834832447	59
1	11566	2294.084016891846	58
1	11576	2296.87533698484	59
1	11585	2298.752563167353	58
1	11589	2299.715839137233	59
1	11604	2302.556341289626	60
1	11619	2305.441486672056	59
1	11626	2306.551612647122	58
1	11633	2308.281988824449	59
1	11651	2311.122490976842	60
1	11657	2311.750978966968	59
1	11668	2314.591481119361	60
1	11688	2319.550028446737	59
1	11697	2322.39053059913	60
1	11700	2322.439712658529	59
1	11712	2325.280214810922	60
1	11739	2329.94618333878	59
1	11754	2332.786685491173	60
1	11783	2337.511723963025	59
1	11793	2340.352226115418	60
1	11796	2340.401408174817	59
1	11810	2342.198531672142	58
1	11817	2343.24191032721	59
1	11825	2346.082412479603	60
1	11912	2366.344325325351	59
1	11915	2366.703228338866	58
1	11928	2369.184827477744	59
1	11939	2371.543691645197	58
1	11946	2372.025329630137	59
1	11952	2374.14337480512	58
1	11957	2374.86583178253	59
1	11976	2377.706333934923	60
1	11986	2379.342741124966	59
1	11992	2382.183243277359	60
1	11999	2382.313007123995	59
1	12014	2385.153509276388	60
1	12050	2392.341156924581	59
1	12058	2395.181659076974	60
1	12070	2397.782994258845	59
1	12086	2400.623496411238	60
1	12100	2403.460273338952	59
1	12114	2406.300775491345	60
1	12122	2407.939255884119	59
1	12134	2410.779758036512	60
1	12162	2415.712621672314	59
1	12164	2415.738305363888	58
1	12170	2418.553123824707	59
1	12179	2420.937671683734	58
1	12187	2421.3936259771	59
1	12195	2423.537354843657	58
1	12196	2424.234128129493	59
1	12210	2427.074630281886	60
1	12213	2427.123812341285	59
1	12220	2427.918629406755	58
1	12223	2427.964970005676	57
1	12234	2429.964314493678	58
1	12238	2432.804816646071	59
1	12241	2432.85399870547	58
1	12252	2435.645318798464	59
1	12257	2436.535770643272	58
1	12267	2438.485820950857	59
1	12279	2441.32632310325	60
1	12298	2442.98644698071	59
1	12308	2445.826949133103	60
1	12327	2452.13386960281	59
1	12330	2452.4696666724	58
1	12344	2454.974371755203	59
1	12359	2457.814873907596	60
1	12368	2459.932919082579	59
1	12377	2462.773421234972	60
1	12385	2464.722015005762	59
1	12393	2467.562517158155	60
1	12409	2470.331651722271	59
1	12422	2473.12208212862	58
1	12423	2473.172153874664	59
1	12435	2476.012656027057	60
1	12438	2476.061838086456	59
1	12450	2476.974363339124	58
1	12459	2478.902340238849	59
1	12464	2480.730384361963	58
1	12467	2481.742842391242	59
1	12477	2483.330067521886	58
1	12486	2484.583344543635	59
1	12503	2487.423846696028	60
1	12506	2487.473028755427	59
1	12528	2490.31353090782	60
1	12539	2491.129117001655	59
1	12545	2493.969619154048	60
1	12563	2498.928166481424	59
1	12576	2501.479060005848	58
1	12578	2501.527849641347	57
1	12579	2501.768668633817	58
1	12600	2504.60917078621	59
1	12619	2507.449672938603	60
1	12646	2513.73140833921	59
1	12654	2516.571910491603	60
1	12657	2517.125948600885	59
1	12663	2518.325534850485	58
1	12677	2519.966450753278	59
1	12680	2520.015632812677	58
1	12689	2522.325314920731	57
1	12690	2522.806952905671	58
1	12693	2522.85613496507	57
1	12701	2524.924998080654	56
1	12702	2525.647455058064	57
1	12714	2528.487957210457	58
1	12722	2531.32845936285	59
1	12737	2534.168961515243	60
1	12747	2535.323730720346	59
1	12754	2537.923413880269	58
1	12756	2538.164232872739	59
1	12760	2538.236105005934	58
1	12774	2541.004735025132	59
1	12785	2543.845237177525	60
1	12800	2547.281787078967	59
1	12812	2550.12228923136	60
1	12819	2550.488453339296	59
1	12827	2553.328955491689	60
1	12855	2558.720879159653	59
1	12865	2561.561381312046	60
1	12917	2574.99315000602	59
1	12928	2577.833652158413	60
1	12935	2578.596805146305	59
1	12938	2581.437307298698	60
1	12947	2582.11802759896	59
1	12959	2584.958529751353	60
1	12969	2587.245498339382	59
1	12971	2587.317393918806	58
1	12979	2589.917077078729	57
1	12981	2590.086000491775	58
1	12989	2592.926502644168	59
1	13003	2595.116443398575	58
1	13004	2595.767004796561	59
1	13020	2598.607506948954	60
1	13025	2598.656689008353	59
1	13045	2601.497191160746	60
1	13062	2605.515176038267	59
1	13070	2608.11485919819	58
1	13071	2608.35567819066	59
1	13089	2611.196180343053	60
1	13113	2615.913908677959	59
1	13123	2617.982692773955	58
1	13133	2618.754410830352	59
1	13140	2621.594912982745	60
1	13149	2623.80025786817	59
1	13152	2624.002543339468	58
1	13162	2626.312641317651	57
1	13163	2626.640760020563	58
1	13173	2629.481262172956	59
1	13185	2632.321764325349	60
1	13200	2636.25489167283	59
1	13217	2639.095393825223	60
1	13266	2648.507240006192	59
1	13275	2651.347742158585	60
1	13301	2654.909156076804	59
1	13310	2657.749658229197	60
1	13334	2660.759588339554	59
1	13345	2663.600090491947	60
1	13373	2669.003710590035	59
1	13381	2671.844212742428	60
1	13388	2673.011936672916	59
1	13390	2673.106938196265	58
1	13402	2675.706621356188	57
1	13403	2675.852438825309	58
1	13414	2678.306304516111	57
1	13416	2678.692940977702	58
1	13429	2681.533443130095	59
1	13432	2681.582625189494	58
1	13442	2683.505670835957	57
1	13449	2684.373945282488	58
1	13458	2685.264285006278	57
1	13460	2686.10535399588	56
1	13461	2687.214447434881	57
1	13472	2688.705037155803	56
1	13475	2690.054949587274	57
1	13486	2692.895451739667	58
1	13496	2695.73595389206	59
1	13511	2697.51663333964	58
1	13515	2698.576456044453	59
1	13518	2698.625638103852	58
1	13521	2699.103769795495	57
1	13524	2699.139345737945	56
1	13531	2701.416958196846	57
1	13534	2701.703452955418	56
1	13541	2704.257460349239	57
1	13544	2704.303136115341	56
1	13554	2707.097962501632	57
1	13571	2709.768981673002	56
1	13572	2709.938464654025	57
1	13575	2709.987646713424	56
1	13587	2712.778966806418	57
1	13604	2715.619468958811	58
1	13617	2718.459971111204	59
1	13624	2721.300473263597	60
1	13668	2729.274980885855	59
1	13681	2732.115483038248	60
1	13687	2732.899650874494	59
1	13697	2734.273678339726	58
1	13699	2735.499334034417	57
1	13700	2735.740153026887	58
1	13715	2738.58065517928	59
1	13720	2740.698700354263	58
1	13721	2741.421157331673	59
1	13734	2744.261659484066	60
1	13762	2748.497749834032	59
1	13768	2751.097432993955	58
1	13769	2751.338251986425	59
1	13777	2753.697116153878	58
1	13778	2754.178754138818	59
1	13781	2754.227936198217	58
1	13789	2757.019256291211	59
1	13798	2758.896482473724	58
1	13808	2759.410616033765	57
1	13809	2759.859758443604	58
1	13823	2762.700260595997	59
1	13831	2765.54076274839	60
1	13834	2765.589944807789	59
1	13848	2768.430446960182	60
1	13851	2769.295215113416	59
1	13861	2771.894898273339	58
1	13862	2772.135717265809	59
1	13878	2774.494581433262	58
1	13882	2774.976219418202	59
1	13897	2777.816721570595	60
1	13910	2779.693947753108	59
1	13922	2782.534449905501	60
1	13925	2782.5836319649	59
1	13937	2783.283071673174	58
1	13942	2784.893314072954	57
1	13945	2785.424134117293	58
1	13955	2787.492997232877	57
1	13956	2788.264636269686	58
1	13967	2791.105138422079	59
1	13984	2792.692363552723	58
1	13985	2793.945640574472	59
1	14006	2795.535420006536	58
1	14007	2796.786142726865	59
1	14016	2799.626644879258	60
1	14019	2800.491413032492	59
1	14026	2803.331915184885	60
1	14037	2804.61406875563	59
1	14039	2805.690779352338	58
1	14044	2806.518441293923	57
1	14046	2807.454570908023	58
1	14049	2807.503752967422	57
1	14067	2810.295073060416	58
1	14071	2810.890145672184	57
1	14078	2813.135575212809	58
1	14088	2815.976077365202	59
1	14097	2818.689195151953	58
1	14098	2818.816579517595	59
1	14106	2820.04011667326	58
1	14117	2821.657081669988	59
1	14126	2823.888561471799	58
1	14132	2824.497583822381	59
1	14138	2826.488244631722	58
1	14139	2827.338085974774	59
1	14158	2830.178588127167	60
1	14176	2834.74970390354	59
1	14188	2837.590206055933	60
1	14208	2842.08634359126	59
1	14222	2844.926845743653	60
1	14245	2849.817521477495	59
1	14254	2852.485076230952	58
1	14256	2852.658023629888	59
1	14270	2853.652378423915	58
1	14276	2855.498525782281	59
1	14287	2856.797161673346	58
1	14294	2857.684442550798	57
1	14300	2858.339027934674	58
1	14306	2861.179530087067	59
1	14319	2864.02003223946	60
1	14347	2869.049510006708	59
1	14358	2871.890012159101	60
1	14374	2873.282541510336	59
1	14385	2876.123043662729	60
1	14397	2878.481907830182	59
1	14413	2881.30185834007	58
1	14414	2881.322409982575	59
1	14421	2884.162912134968	60
1	14453	2891.480323629797	59
1	14463	2893.554206673432	58
1	14472	2894.32082578219	59
1	14480	2895.02097419936	58
1	14488	2897.161327934583	59
1	14498	2900.001830086976	60
1	14513	2900.786315553907	59
1	14527	2903.6268177063	60
1	14557	2910.088791773315	59
1	14567	2912.277788909181	58
1	14568	2912.929293925708	59
1	14571	2912.978475985107	58
1	14582	2914.877472069104	57
1	14586	2915.769796078101	58
1	14595	2918.058903340156	57
1	14596	2918.610298230494	58
1	14607	2921.450800382887	59
1	14622	2924.29130253528	60
1	14634	2925.276204708796	59
1	14642	2928.116706861189	60
1	14688	2938.274620508411	59
1	14697	2940.874303668334	58
1	14698	2941.115122660804	59
1	14715	2943.955624813197	60
1	14718	2944.004806872596	59
1	14726	2946.07366998818	58
1	14728	2946.845309024989	59
1	14740	2948.673353148103	58
1	14741	2949.685811177382	59
1	14749	2951.273036308026	58
1	14752	2952.526313329775	59
1	14763	2954.815948340242	58
1	14767	2955.366815482168	59
1	14777	2956.472402627872	58
1	14781	2958.207317634561	59
1	14795	2961.047819786954	60
1	14862	2974.670184747333	59
1	14871	2977.269867907256	58
1	14872	2977.510686899726	59
1	14883	2979.320645006966	58
1	14886	2980.351189052119	59
1	14898	2982.469234227102	58
1	14901	2983.191691204512	59
1	14907	2985.068917387025	58
1	14920	2986.032193356905	59
1	14932	2988.872695509298	60
1	14937	2990.268283706871	59
1	14951	2993.108785859264	60
1	14957	2995.054189813891	59
1	14964	2997.894691966284	60
1	14997	3003.266699506486	59
1	15000	3003.82534167369	58
1	15008	3006.107201658879	59
1	15011	3006.156383718278	58
1	15026	3008.947703811272	59
1	15037	3011.065748986255	58
1	15038	3011.788205963665	59
1	15050	3014.628708116058	60
1	15084	3018.864798466024	59
1	15090	3021.705300618417	60
1	15107	3026.663847945793	59
1	15119	3029.263531105716	58
1	15120	3029.504350098186	59
1	15130	3030.631332364955	58
1	15132	3031.863214265639	57
1	15133	3032.344852250579	58
1	15153	3035.185354402972	59
1	15165	3037.062580585485	58
1	15168	3038.025856555365	59
1	15175	3039.662263745408	58
1	15179	3040.582386673776	57
1	15182	3040.866358707758	58
1	15199	3043.706860860151	59
1	15213	3046.547363012544	60
1	15216	3047.461313225177	59
1	15225	3050.30181537757	60
1	15242	3052.834735007138	59
1	15248	3055.675237159531	60
1	15258	3057.860045864869	59
1	15266	3060.700548017262	60
1	15269	3060.749730076661	59
1	15273	3060.766967512865	58
1	15283	3063.590232229054	59
1	15289	3065.0870833405	58
1	15298	3066.430734381447	59
1	15304	3066.479916440846	58
1	15321	3069.27123653384	59
1	15335	3072.111738686233	60
1	15348	3076.05782798433	59
1	15361	3078.657511144253	58
1	15362	3078.898330136723	59
1	15367	3081.257194304176	58
1	15368	3081.738832289116	59
1	15387	3084.579334441509	60
1	15396	3086.456560624022	59
1	15407	3089.297062776415	60
1	15414	3089.591780007224	59
1	15417	3090.902602660775	58
1	15426	3092.432282159617	59
1	15431	3094.255610103791	58
1	15432	3095.27278431201	59
1	15435	3095.321966371409	58
1	15440	3096.855293263714	57
1	15442	3098.113286464403	58
1	15459	3100.953788616796	59
1	15469	3103.794290769189	60
1	15495	3109.853709063329	59
1	15504	3112.453392223252	58
1	15507	3112.694211215722	59
1	15521	3114.096476673948	58
1	15527	3115.534713368115	59
1	15539	3118.375215520508	60
1	15560	3122.852124862944	59
1	15571	3125.692627015337	60
1	15577	3126.34882500731	59
1	15587	3128.05149118279	58
1	15592	3129.189327159703	59
1	15604	3132.029829312096	60
1	15621	3135.850540662559	59
1	15624	3136.10605538264	58
1	15641	3138.691042814952	59
1	15651	3141.049906982405	58
1	15652	3141.531544967345	59
1	15655	3141.580727026744	58
1	15663	3144.372047119738	59
1	15678	3147.212549272131	60
1	15694	3150.853521674034	59
1	15697	3151.173872956595	58
1	15710	3153.694023826427	59
1	15725	3156.53452597882	60
1	15753	3163.105870007396	59
1	15769	3165.946372159789	60
1	15871	3187.61056667412	59
1	15873	3187.844203861019	58
1	15881	3190.451068826513	59
1	15890	3193.291570978906	60
1	15910	3196.37732567846	59
1	15918	3198.242936500711	58
1	15923	3199.217827830853	59
1	15933	3202.058329983246	60
1	15981	3212.115263340844	59
1	15987	3213.841035460249	58
1	15992	3214.955765493237	59
1	15999	3216.440718620172	58
1	16000	3217.79626764563	59
1	16008	3219.040401780095	58
1	16017	3220.636769798023	59
1	16026	3223.477271950416	60
1	16032	3224.239768099941	59
1	16035	3224.367611674206	58
1	16043	3226.839451259864	57
1	16044	3227.080270252334	58
1	16056	3229.920772404727	59
1	16071	3232.76127455712	60
1	16080	3234.638500739633	59
1	16089	3237.238183899556	58
1	16091	3237.479002892026	59
1	16105	3240.319505044419	60
1	16125	3245.037233379325	59
1	16132	3247.877735531718	60
1	16194	3261.124656674292	59
1	16209	3263.965158826685	60
1	16301	3286.78423112219	59
1	16312	3289.624733274583	60
1	16354	3297.881701674378	59
1	16361	3300.722203826771	60
1	16377	3302.230262897631	59
1	16389	3305.070765050024	60
1	16416	3310.13405000774	59
1	16426	3312.628995537323	58
1	16429	3312.974552160133	59
1	16438	3315.228678697246	58
1	16439	3315.815054312526	59
1	16443	3316.9198662701	58
1	16451	3317.828361857169	57
1	16456	3318.655556464919	58
1	16459	3318.704738524318	57
1	16467	3320.428045017092	56
1	16468	3321.496058617312	57
1	16471	3321.545240676711	56
1	16485	3324.336560769705	57
1	16501	3325.627411336938	56
1	16504	3327.177062922098	57
1	16511	3330.017565074491	58
1	16517	3330.826777656784	57
1	16525	3332.858067226884	58
1	16541	3335.698569379277	59
1	16554	3338.53907153167	60
1	16559	3338.625827136553	59
1	16574	3341.466329288946	60
1	16606	3347.05550141801	59
1	16613	3349.024559776245	58
1	16614	3349.896003570403	59
1	16625	3351.624242936168	58
1	16626	3352.736505722796	59
1	16632	3354.223926096091	58
1	16636	3355.577007875189	59
1	16639	3355.626189934588	58
1	16651	3358.417510027582	59
1	16657	3359.143443341188	58
1	16669	3361.258012179975	59
1	16677	3362.123318991965	58
1	16688	3364.098514332368	59
1	16691	3364.622658735783	58
1	16692	3366.939016484761	59
1	16695	3366.98819854416	58
1	16701	3367.222341895706	57
1	16705	3369.779518637154	58
1	16712	3371.39579167455	57
1	16723	3372.620020789547	58
1	16736	3375.46052294194	59
1	16747	3377.19113656592	58
1	16750	3378.301025094333	59
1	16757	3380.220757695321	58
1	16758	3381.141527246726	59
1	16765	3382.820440855244	58
1	16773	3383.982029399119	59
1	16777	3385.420124015167	58
1	16781	3386.822531551512	59
1	16800	3389.663033703905	60
1	16822	3393.219173494936	59
1	16835	3395.692655418823	58
1	16842	3395.900488341274	57
1	16843	3396.059675647329	58
1	16848	3396.108857706728	57
1	16858	3398.900177799722	58
1	16869	3401.740679952115	59
1	16883	3404.581182104508	60
1	16921	3414.01663877432	59
1	16925	3416.616321934243	58
1	16935	3416.857140926713	59
1	16943	3419.216005094166	58
1	16945	3419.259623983819	57
1	16947	3419.697643079106	58
1	16967	3422.394589287785	57
1	16968	3422.538145231499	58
1	16975	3424.415371414012	57
1	16986	3425.378647383892	58
1	16990	3428.219149536285	59
1	17002	3431.059651688678	60
1	17015	3432.65753334136	59
1	17024	3435.498035493753	60
1	17032	3437.413787213627	59
1	17057	3440.25428936602	60
1	17079	3444.909881674722	59
1	17084	3445.212836693396	58
1	17089	3447.750383827115	59
1	17095	3447.812519853319	58
1	17101	3450.590885979508	59
1	17111	3452.530224435695	58
1	17116	3453.431388131901	59
1	17130	3456.271890284294	60
1	17137	3457.162230008084	59
1	17144	3458.211252493011	58
1	17151	3460.002732160477	59
1	17162	3462.84323431287	60
1	17174	3466.01030197278	59
1	17185	3467.59804200965	58
1	17192	3468.850804125173	59
1	17206	3471.691306277566	60
1	17209	3471.740488336965	59
1	17221	3474.580990489358	60
1	17250	3481.666926674808	59
1	17255	3482.665859583605	58
1	17260	3484.507428827201	59
1	17272	3487.347930979594	60
1	17303	3493.91927500817	59
1	17308	3494.606816731933	58
1	17317	3496.759777160563	59
1	17330	3499.600279312956	60
1	17388	3512.804598851394	59
1	17397	3515.645101003787	60
1	17414	3518.423971674894	59
1	17424	3521.264473827287	60
1	17471	3531.002380970855	59
1	17478	3533.602064130778	58
1	17480	3533.842883123248	59
1	17490	3536.683385275641	60
1	17504	3537.094466808799	59
1	17508	3539.934968961192	60
1	17514	3541.401113610547	59
1	17534	3544.24161576294	60
1	17553	3549.200163090316	59
1	17566	3551.799846250239	58
1	17568	3552.040665242709	59
1	17577	3554.881167395102	60
1	17583	3555.18101667498	59
1	17599	3558.00494745338	58
1	17600	3558.021518827373	59
1	17620	3560.862020979766	60
1	17623	3560.911203039165	59
1	17629	3562.198578889931	58
1	17632	3563.751705191558	59
1	17638	3564.798262049854	58
1	17647	3566.592207343951	59
1	17650	3566.64138940335	58
1	17662	3569.432709496344	59
1	17674	3572.273211648737	60
1	17690	3575.196994689546	59
1	17696	3577.796677849469	58
1	17699	3578.037496841939	59
1	17710	3579.685713341704	58
1	17716	3580.877998994332	59
1	17731	3582.996044169315	58
1	17733	3583.718501146725	59
1	17743	3585.595727329238	58
1	17747	3586.559003299118	59
1	17759	3589.399505451511	60
1	17801	3598.594143128853	59
2	0	0	0
2	13592	2713.017946235507	1
2	13618	2718.459971111204	2
2	13620	2718.623317560218	3
2	16078	3233.800789025024	4
2	16123	3243.886850557883	5
2	16319	3291.06336837881	6
2	16730	3373.722570935774	7
2	16900	3408.242532354227	8
2	17737	3584.179221879392	9
3	0	0	0
3	157	2	59
3	161	2	58
3	169	4.599683159923	59
3	170	4.599683159923	60
3	178	5.51544380032	59
3	182	6.114183387732	58
3	190	7.199366319846	59
3	194	7.440185312316	58
3	196	8.115126960243	59
3	198	8.713866547655	60
3	204	9.799049479769	59
3	206	9.985530943208	58
3	208	10.039868472239	59
3	213	10.714810120166	60
3	219	12.398732639692	59
3	220	12.585214103131	60
3	221	12.639551632162	59
3	230	14.998415799615	60
3	231	15.239234792085	59
3	240	17.838917952008	60
3	243	18.128790301283	59
3	251	19.028901873413	58
3	253	19.667500733878	59
3	264	20.583261374275	58
3	266	20.728473461206	59
3	269	21.628585033336	60
3	272	22.267183893801	59
3	278	22.79800393814	58
3	279	23.182944534198	59
3	283	23.328156621129	60
3	286	23.568975613599	59
3	289	24.12507154883	58
3	290	24.866867053724	59
3	293	25.397687098063	60
3	298	25.566968564996	59
3	301	25.782627694121	60
3	305	26.168658773522	59
3	315	26.724754708753	60
3	317	27.466550213647	59
3	319	28.166651724919	60
3	322	28.768341933445	59
3	334	30.06623337357	60
3	336	30.115432591264	59
3	342	31.194841851641	58
3	345	31.368025093368	59
3	350	32.715115751187	60
3	352	33.794525011564	59
3	354	33.967708253291	60
3	365	34.735318307833	59
3	372	35.55561790358	58
3	376	36.057803746826	57
3	377	36.394208171487	58
3	379	37.000514700105	57
3	381	37.335001467756	58
3	388	38.155301063503	59
3	400	38.657486906749	60
3	407	38.99389133141	59
3	408	39.600197860028	60
3	410	39.889531550547	59
3	412	39.934684627679	60
3	417	40.754984223426	59
3	426	41.593574491333	60
3	428	42.48921471047	59
3	434	43.354667383349	60
3	441	45.088897870393	59
3	443	45.334382457263	58
3	456	47.688581030316	59
3	457	47.934065617186	60
3	460	48.119213362262	59
3	469	49.803135881788	60
3	471	50.288264190239	59
3	474	50.386370903849	58
3	476	50.718896522185	59
3	478	50.774567769579	58
3	492	52.404152760074	57
3	493	52.887947350162	58
3	495	52.986054063772	59
3	499	53.086705620239	58
3	500	53.318579682108	59
3	503	53.374250929502	60
3	522	54.864123494177	59
3	524	55.003835919997	60
3	529	55.487630510085	59
3	530	55.585737223695	60
3	531	55.686388780162	59
3	537	55.918262842031	60
3	540	56.214753081895	59
3	546	57.4638066541	60
3	549	58.087313670008	59
3	551	58.286071940085	60
3	558	58.814436241818	59
3	563	59.473923062885	58
3	564	60.686996829931	59
3	565	61.414119401741	60
3	570	62.073606222808	59
3	580	63.286679989854	60
3	582	64.673289382731	59
3	585	64.870953455743	60
3	590	66.102243819203	59
3	593	66.385453683552	58
3	597	66.515161205132	57
3	599	66.543693365696	56
3	601	67.272972542654	57
3	604	68.701926979126	58
3	606	68.985136843475	59
3	608	69.114844365055	60
3	610	69.143376525619	59
3	611	69.872655702577	60
3	621	71.301610139049	59
3	622	71.584820003398	60
3	623	71.743059685542	59
3	625	71.825638995868	58
3	628	71.955346517448	57
3	638	72.700905694988	56
3	644	73.613463668507	55
3	645	73.901293298972	56
3	646	74.342742845465	57
3	648	74.425322155791	58
3	653	74.555029677371	59
3	656	75.300588854911	60
3	663	76.21314682843	59
3	665	76.500976458895	60
3	666	76.942426005388	59
3	669	77.025005315714	60
3	670	77.154712837294	59
3	675	77.506643300654	58
3	678	78.141091007304	57
3	684	78.668080059056	56
3	691	78.812829988353	57
3	692	79.542109165311	58
3	695	79.754395997217	59
3	700	79.938771029698	60
3	702	80.106326460577	59
3	711	80.740774167227	60
3	712	81.267763218979	59
3	715	81.412513148276	60
3	716	82.141792325234	59
3	718	82.35407915714	60
3	723	82.7060096205	59
3	732	83.867446378902	60
3	734	84.741475485157	59
3	738	85.305692780423	60
3	750	87.34115864508	59
3	766	89.940841805003	60
3	789	94.82277457694	59
3	791	95.124813609984	58
3	795	96.267874259984	57
3	798	97.422457736863	58
3	801	97.724496769907	59
3	809	98.867557419907	60
3	814	100.022140896786	59
3	816	100.262959889256	58
3	818	100.32417992983	59
3	827	102.621824056709	60
3	832	102.862643049179	59
3	835	102.923863089753	60
3	837	102.936107254829	59
3	845	104.173411240478	58
3	849	105.462326209102	59
3	851	105.535790414752	60
3	856	106.773094400401	59
3	865	108.062009369025	60
3	874	108.784466346435	59
3	879	109.372777560324	60
3	882	110.074406177608	59
3	884	110.315225170078	58
3	891	111.384149506358	59
3	898	112.674089337531	60
3	900	112.914908330001	59
3	905	113.983832666281	60
3	916	115.514591489924	59
3	925	118.114274649847	60
3	938	119.83484282498	59
3	943	121.202313113891	58
3	949	122.434525984903	59
3	963	123.801996273814	60
3	969	124.613685163454	59
3	971	125.034209144826	60
3	974	125.142223751563	59
3	987	126.875345488783	58
3	988	127.213368323377	59
3	992	127.363985486013	58
3	996	127.741906911486	59
3	1005	129.475028648706	60
3	1008	129.4830005786	59
3	1010	129.8130514833	60
3	1012	129.963668645936	59
3	1014	130.341590071409	60
3	1016	130.390789289103	59
3	1024	131.030322410264	58
3	1032	132.082683738523	59
3	1036	132.563351805859	60
3	1041	132.990472449026	59
3	1047	133.630005570187	60
3	1049	134.682366898446	59
3	1054	135.590155608949	60
3	1063	137.282050058369	59
3	1073	138.231214987304	58
3	1075	138.526118805992	57
3	1085	139.881733218292	58
3	1088	140.210041325518	59
3	1091	140.439819141141	58
3	1095	140.830898147227	59
3	1098	141.125801965915	60
3	1103	142.481416378215	59
3	1105	142.809724485441	60
3	1106	143.039502301064	59
3	1112	143.401811389976	58
3	1113	143.43058130715	59
3	1115	144.311166696617	58
3	1118	145.081099538138	59
3	1120	145.639185460987	60
3	1125	146.001494549899	59
3	1126	146.030264467073	60
3	1127	146.91084985654	59
3	1134	147.680782698061	60
3	1136	148.47968761338	59
3	1141	148.601177709822	60
3	1149	149.413904435281	59
3	1150	149.510533016463	60
3	1158	151.079370773303	59
3	1163	151.380936999428	58
3	1164	152.013587595204	59
3	1181	153.679053933226	60
3	1185	153.980620159351	59
3	1189	154.613270755127	60
3	1192	155.260116860717	59
3	1193	155.277858899473	60
3	1202	156.580303319274	59
3	1204	157.080643363112	58
3	1210	157.85980002064	59
3	1212	158.408362103735	58
3	1214	158.450707302239	57
3	1215	159.179986479197	58
3	1219	159.680326523035	59
3	1224	160.459483180563	60
3	1227	161.008045263658	59
3	1228	161.050390462162	60
3	1234	161.77966963912	59
3	1235	162.280009682958	60
3	1244	163.607728423581	59
3	1248	164.121030486099	58
3	1249	164.379352799043	59
3	1254	166.207411583504	60
3	1256	166.720713646022	59
3	1259	166.968779954972	58
3	1260	166.979035958966	59
3	1262	167.123172223901	58
3	1280	169.320396805945	59
3	1283	169.568463114895	60
3	1285	169.578719118889	59
3	1286	169.722855383824	60
3	1289	170.345676473428	59
3	1298	171.920079965868	60
3	1300	172.078798210648	59
3	1303	172.178402278812	60
3	1307	172.28901873413	59
3	1314	172.945359633351	60
3	1319	174.678481370571	59
3	1320	174.888701894053	60
3	1340	176.373378819461	59
3	1342	177.278164530494	60
3	1354	178.973061979384	59
3	1362	179.660018210672	58
3	1368	181.572745139307	59
3	1375	184.17242829923	60
3	1393	187.147870395316	59
3	1406	189.317920607543	58
3	1407	189.747553555239	59
3	1415	190.535748519968	58
3	1420	192.347236715162	59
3	1433	193.799558816294	58
3	1436	194.946919875085	59
3	1441	195.545483615396	58
3	1449	197.546603035008	59
3	1466	199.279724772228	58
3	1472	200.146286194931	59
3	1478	200.878075486185	58
3	1486	202.214433358558	57
3	1488	202.745969354854	58
3	1502	205.345652514777	59
3	1509	206.346822480956	58
3	1515	207.939099421916	57
3	1516	207.9453356747	58
3	1530	210.545018834623	59
3	1535	211.674273916679	58
3	1545	213.144701994546	59
3	1549	213.385520987016	58
3	1552	213.865206675767	57
3	1561	214.102717084964	56
3	1568	215.744385154469	57
3	1581	218.344068314392	58
3	1589	220.943751474315	59
3	1596	222.078640027538	58
3	1602	223.375724354369	57
3	1603	223.543434634238	58
3	1613	226.143117794161	59
3	1635	228.742800954084	60
3	1654	231.966429665093	59
3	1660	233.904278610088	58
3	1663	234.566112825016	59
3	1676	237.165795984939	60
3	1684	237.66968564996	59
3	1695	240.269368809883	60
3	1724	243.287950935971	59
3	1739	245.887634095894	60
3	1745	247.199264571012	59
3	1758	249.798947730935	60
3	1761	249.887468819633	59
3	1763	250.357721238782	58
3	1769	252.487151979556	59
3	1774	255.086835139479	60
3	1789	257.427491541593	59
3	1792	257.433528101195	58
3	1803	260.027174701516	59
3	1808	260.060644820528	58
3	1819	261.236654214956	57
3	1821	262.626857861439	58
3	1824	262.930647010252	57
3	1834	263.88308512142	56
3	1842	264.497261844404	55
3	1843	265.226541021362	56
3	1856	267.826224181285	57
3	1867	270.425907341208	58
3	1886	272.159029078428	57
3	1892	273.025590501131	58
3	1903	274.462429974608	57
3	1906	275.625273661054	58
3	1929	278.224956820977	59
3	1932	278.465775813447	58
3	1935	278.901720635976	57
3	1949	280.8246399809	58
3	1952	281.06545897337	57
3	1958	283.424323140823	58
3	1975	284.803622779952	57
3	1977	286.024006300746	58
3	1995	288.623689460669	59
3	2008	290.484627084738	58
3	2011	291.223372620592	59
3	2023	292.318225423094	58
3	2026	292.776343055648	57
3	2030	293.023293981783	56
3	2032	293.823055780515	57
3	2049	296.422738940438	58
3	2067	299.022422100361	59
3	2073	299.846113358459	58
3	2080	301.622105260284	59
3	2090	304.221788420207	60
3	2098	305.331546819503	59
3	2108	306.91588366127	58
3	2112	307.689156376243	57
3	2114	307.931229979426	58
3	2121	308.370591344948	57
3	2124	308.447015724377	56
3	2138	310.530913139349	57
3	2162	313.099036923419	56
3	2163	313.130596299272	57
3	2176	315.730279459195	58
3	2185	318.329962619118	59
3	2199	320.929645779041	60
3	2203	321.264671205448	59
3	2208	322.077924627985	58
3	2211	323.864354365371	59
3	2217	324.57580602566	58
3	2221	325.549135594847	57
3	2224	326.464037525294	58
3	2230	329.063720685217	59
3	2235	329.979481325614	58
3	2240	331.66340384514	59
3	2259	334.263087005063	60
3	2277	337.824791524153	59
3	2281	340.424474684076	60
3	2285	340.704596326943	59
3	2293	342.57803746826	58
3	2296	343.304279486866	59
3	2299	344.220040127263	58
3	2307	345.903962646789	59
3	2314	348.503645806712	60
3	2325	349.334505478136	59
3	2337	351.584966951575	58
3	2339	351.634149010974	57
3	2340	351.934188638059	58
3	2343	354.240808505751	57
3	2347	354.533871797982	58
3	2360	355.50452847494	57
3	2363	356.833386628226	56
3	2365	357.133554957905	57
3	2373	357.615192942845	56
3	2379	359.606939341673	55
3	2380	359.733238117828	56
3	2389	362.332921277751	57
3	2405	364.932604437674	58
3	2415	366.866537084512	57
3	2419	367.532287597597	58
3	2423	368.013925582537	57
3	2435	370.13197075752	58
3	2441	372.547541389298	57
3	2443	372.731653917443	58
3	2451	375.331337077366	59
3	2471	377.931020237289	60
3	2480	379.071497039936	59
3	2492	381.671180199859	60
3	2506	384.663300486615	59
3	2508	384.683356992191	58
3	2509	387.262983646538	59
3	2514	388.178744286935	58
3	2522	389.862666806461	59
3	2538	392.462349966384	60
3	2541	392.703168958854	59
3	2554	395.302852118777	60
3	2573	398.38417326364	59
3	2576	398.822897597813	58
3	2581	400.983856423563	59
3	2584	401.224675416033	58
3	2593	403.583539583486	59
3	2602	405.219757532075	58
3	2605	406.183222743409	59
3	2611	407.098983383806	58
3	2614	408.368651969117	57
3	2617	408.475775770357	56
3	2619	408.782905903332	57
3	2626	410.693644961912	56
3	2628	411.20915412151	55
3	2629	411.382589063255	56
3	2635	412.589959158089	55
3	2638	412.962438203435	54
3	2639	413.982272223178	55
3	2642	414.049656273903	54
3	2646	416.581955383101	55
3	2663	419.181638543024	56
3	2672	420.032208506246	55
3	2677	421.348547833358	54
3	2678	421.781321702947	55
3	2681	422.571162731082	54
3	2683	422.697082343344	53
3	2688	424.38100486287	54
3	2695	425.411664883475	53
3	2701	426.205434169928	52
3	2702	426.980688022793	53
3	2706	427.722546835325	52
3	2714	429.580371182716	53
3	2720	431.092669188261	52
3	2724	432.180054342639	53
3	2740	434.171749111868	52
3	2741	434.779737502562	53
3	2747	436.773673493047	52
3	2754	437.379420662485	53
3	2758	437.477338134641	52
3	2763	439.61417564544	51
3	2764	439.979103822408	52
3	2775	442.454677797833	51
3	2776	442.578786982331	52
3	2782	443.494547622728	51
3	2788	444.751448708738	50
3	2789	445.178470142254	51
3	2801	447.778153302177	52
3	2820	450.3778364621	53
3	2825	450.976184255012	52
3	2826	452.977519622023	53
3	2830	453.606128435924	52
3	2842	454.950287859047	51
3	2848	455.381060020301	50
3	2849	455.577202781946	51
3	2857	456.657188559798	50
3	2862	458.176885941869	51
3	2866	460.776569101792	52
3	2869	461.017388094262	51
3	2881	461.780350582151	50
3	2883	461.960159810873	49
3	2886	462.450830323112	48
3	2889	463.376252261715	49
3	2894	465.975935421638	50
3	2897	466.074343198605	49
3	2906	468.575618581561	50
3	2919	469.520600625923	49
3	2925	471.175301741484	50
3	2928	471.897758718894	49
3	2934	473.33937129992	48
3	2935	473.774984901407	49
3	2952	476.37466806133	50
3	2955	476.590370928734	49
3	2957	477.57876302368	48
3	2960	478.416893361801	47
3	2964	478.809252455564	46
3	2965	478.974351221253	47
3	2971	480.419265176073	46
3	2972	481.574034381176	47
3	2982	483.259767328466	46
3	2987	484.173717541099	47
3	2992	485.085923006957	46
3	2996	485.86370903849	45
3	2998	486.100269480859	44
3	3003	486.773400701022	45
3	3005	489.373083860945	46
3	3008	489.613902853415	45
3	3018	491.972767020868	46
3	3025	494.572450180791	47
3	3030	495.294907158201	46
3	3042	496.906339864916	45
3	3043	497.172133340714	46
3	3047	497.799681837167	45
3	3064	499.771816500637	46
3	3072	501.992499339773	45
3	3073	502.37149966056	46
3	3087	504.971182820483	47
3	3096	507.570865980406	48
3	3099	507.811684972876	47
3	3101	510.170549140329	48
3	3111	511.939222442789	47
3	3113	512.770232300252	48
3	3130	515.369915460175	49
3	3133	515.444543851389	48
3	3143	517.146299666863	47
3	3147	517.969598620098	48
3	3158	519.0089927456	47
3	3160	519.558727239121	46
3	3165	520.473308429912	45
3	3166	520.569281780021	46
3	3174	523.168964939944	47
3	3185	525.768648099867	48
3	3193	528.36833125979	49
3	3209	529.895958075803	48
3	3210	530.968014419713	49
3	3224	533.567697579636	50
3	3237	535.10380145261	49
3	3240	536.167380739559	50
3	3249	537.900502476779	49
3	3251	538.767063899482	50
3	3264	540.218303654033	49
3	3268	541.366747059405	50
3	3275	543.943828820321	49
3	3276	543.966430219328	50
3	3297	546.566113379251	51
3	3301	546.924859949216	50
3	3305	547.288073956844	49
3	3312	549.165796539174	50
3	3319	551.765479699097	51
3	3336	554.36516285902	52
3	3339	554.60598185149	51
3	3348	556.964846018943	52
3	3362	559.564529178866	53
3	3376	561.427614562466	52
3	3378	561.780189675387	51
3	3379	562.164212338789	52
3	3393	564.763895498712	53
3	3401	565.967990461062	52
3	3412	567.363578658635	53
3	3421	567.607245559904	52
3	3423	568.497384865277	51
3	3425	568.808492613455	50
3	3428	569.963261818558	51
3	3433	572.562944978481	52
3	3443	574.489496918241	51
3	3451	575.162628138404	52
3	3454	575.567155168088	51
3	3456	577.157294667369	50
3	3462	577.762311298327	51
3	3474	580.36199445825	52
3	3478	580.982663696042	51
3	3488	582.636450846188	50
3	3492	582.961677618173	51
3	3495	583.01100337542	50
3	3501	585.561360778096	51
3	3513	588.161043938019	52
3	3517	588.692007680206	51
3	3529	590.760727097942	52
3	3533	591.1742141249	51
3	3535	591.532509832599	50
3	3537	593.360410257865	51
3	3548	595.960093417788	52
3	3551	596.776466076521	51
3	3562	598.011565569455	50
3	3563	598.559776577711	51
3	3569	598.765241147471	50
3	3577	600.054016289778	49
3	3579	601.159459737634	50
3	3583	601.842394993761	49
3	3591	602.894518442171	48
3	3596	603.759142897557	49
3	3599	603.846236379332	48
3	3606	605.628463598597	47
3	3608	606.35882605748	48
3	3616	606.59964504995	47
3	3618	608.958509217403	48
3	3621	609.440147202343	47
3	3629	610.916006682143	46
3	3630	611.558192377326	47
3	3634	614.157875537249	48
3	3641	614.741182689896	47
3	3644	614.894031448754	46
3	3647	615.040467442868	45
3	3649	615.073636177646	44
3	3652	616.757558697172	45
3	3661	617.787749364059	44
3	3667	619.357241857095	45
3	3683	621.956925017018	46
3	3692	624.556608176941	47
3	3702	625.472368817338	46
3	3711	627.156291336864	47
3	3718	627.687111381203	46
3	3720	628.594214443362	45
3	3721	629.755974496787	46
3	3724	630.527613533596	45
3	3730	631.022821750037	44
3	3736	632.069369316281	43
3	3740	632.35565765671	44
3	3755	634.955340816633	45
3	3759	637.555023976556	46
3	3771	638.308151254892	45
3	3778	639.195087893387	44
3	3779	640.154707136479	45
3	3782	640.529342410896	44
3	3786	642.754390296402	45
3	3789	643.369844563289	44
3	3793	645.354073456325	45
3	3796	646.210346715682	44
3	3802	647.953756616248	45
3	3805	648.869517256645	44
3	3808	649.050848868075	43
3	3812	649.098271189694	42
3	3819	650.553439776171	43
3	3833	653.153122936094	44
3	3842	654.214963820579	43
3	3844	654.248960577208	42
3	3848	655.752806096017	43
3	3853	658.35248925594	44
3	3863	660.40439880182	43
3	3864	660.952172415863	44
3	3867	661.433810400803	43
3	3871	661.875119819888	42
3	3874	663.280402352603	41
3	3878	663.551855575786	42
3	3891	665.899733894417	41
3	3896	666.151538735709	42
3	3899	666.467312153941	41
3	3911	668.751221895632	42
3	3918	671.350905055555	43
3	3928	673.950588215478	44
3	3935	676.550271375401	45
3	3938	678.719660487303	44
3	3939	679.149954535324	45
3	3943	679.409192653886	44
3	3958	681.613709710253	43
3	3959	681.749637695247	44
3	3964	681.990456687717	43
3	3975	683.693455218751	42
3	3978	684.071835576917	41
3	3979	684.34932085517	42
3	3993	686.949004015093	43
3	3999	687.807638606483	42
3	4002	687.86476465549	41
3	4014	689.548687175016	42
3	4018	692.148370334939	43
3	4026	694.748053494862	44
3	4036	695.537982955169	43
3	4042	697.347736654785	44
3	4052	699.947419814708	45
3	4059	700.184976809933	44
3	4073	702.547102974631	45
3	4076	702.823020618686	44
3	4086	705.146786134554	45
3	4091	706.110062104434	44
3	4092	707.746469294477	45
3	4099	708.950564256827	44
3	4105	709.00905694988	43
3	4109	710.3461524544	44
3	4117	711.666773256452	43
3	4119	711.79106640922	42
3	4126	712.945835614323	43
3	4129	714.631568561613	42
3	4133	715.545518774246	43
3	4140	716.606922320607	42
3	4144	717.213878683346	41
3	4145	718.145201934169	42
3	4154	720.744885094092	43
3	4167	723.344568254015	44
3	4177	725.944251413938	45
3	4180	726.171004190237	44
3	4183	726.185070406408	43
3	4190	727.795563557735	42
3	4192	728.543934573861	43
3	4199	729.025572558801	42
3	4207	731.143617733784	43
3	4211	732.576025514876	42
3	4217	733.743300893707	43
3	4221	734.242780556759	42
3	4222	736.34298405363	43
3	4238	738.942667213553	44
3	4252	741.542350373476	45
3	4260	743.163563276188	44
3	4264	743.924353859018	43
3	4265	744.142033533399	44
3	4275	746.741716693322	45
3	4281	749.341399853245	46
3	4293	751.271682430172	45
3	4297	751.941083013168	46
3	4300	752.233750487475	45
3	4302	752.311412738363	44
3	4306	752.856843653565	43
3	4313	754.540766173091	44
3	4322	756.142994079872	43
3	4325	757.140449333014	44
3	4328	757.381268325484	43
3	4344	759.381183041174	42
3	4346	759.723683594893	41
3	4347	759.740132492937	42
3	4351	760.053144160301	41
3	4361	762.33981565286	42
3	4368	764.939498812783	43
3	4381	767.539181972706	44
3	4385	768.300584303585	43
3	4389	770.091306361123	42
3	4391	770.138865132629	43
3	4401	771.374456912102	42
3	4407	772.738548292552	43
3	4413	773.654308932949	42
3	4420	775.338231452475	43
3	4429	776.738447154199	42
3	4433	777.937914612398	43
3	4439	778.853675252795	42
3	4450	779.709962644868	41
3	4451	780.537597772321	42
3	4455	783.137280932244	43
3	4468	785.329486176998	42
3	4472	785.736964092167	43
3	4478	786.267784136506	42
3	4482	788.33664725209	43
3	4485	789.108286288899	42
3	4492	790.936330412013	43
3	4495	791.85209105241	42
3	4498	791.948788441292	41
3	4505	793.536013571936	42
3	4525	796.135696731859	43
3	4535	797.678974805477	42
3	4539	798.735379891782	43
3	4551	801.335063051705	44
3	4558	801.79980485804	43
3	4563	802.358388050411	42
3	4567	803.276931209864	41
3	4570	803.359979110263	40
3	4571	803.934746211628	41
3	4577	806.534429371551	42
3	4580	806.775248364021	41
3	4591	808.869575160851	40
3	4592	809.134112531474	41
3	4602	810.049873171871	40
3	4608	810.735470717707	39
3	4610	811.733795691397	40
3	4617	813.495492154285	39
3	4619	813.795978943118	38
3	4621	814.33347885132	39
3	4636	816.933162011243	40
3	4641	819.176496459071	39
3	4645	819.387289923824	38
3	4646	819.532845171166	39
3	4649	822.016998611464	38
3	4655	822.132528331089	39
3	4661	823.009115766473	38
3	4663	823.048288971486	37
3	4669	824.732211491012	38
3	4679	826.84389977486	37
3	4683	827.331894650935	38
3	4690	829.931577810858	39
3	4700	832.531260970781	40
3	4705	832.772079963251	39
3	4711	835.130944130704	40
3	4726	836.416191797237	39
3	4731	837.148656372095	38
3	4733	837.730627290627	39
3	4739	838.502266327436	38
3	4740	840.33031045055	39
3	4753	842.929993610473	40
3	4767	845.529676770396	41
3	4774	846.709446044974	40
3	4781	848.129359930319	41
3	4784	848.370178922789	40
3	4791	850.410868339856	39
3	4792	850.729043090242	40
3	4802	851.288196977717	39
3	4808	853.328726250165	40
3	4813	853.44509367065	39
3	4815	854.051183227575	38
3	4823	855.928409410088	39
3	4826	856.741957305801	38
3	4829	856.825885967999	37
3	4840	858.528092570011	38
3	4848	859.732187532361	37
3	4854	861.127775729934	38
3	4862	863.727458889857	39
3	4868	865.413191837147	38
3	4870	865.427737583339	37
3	4871	866.32714204978	38
3	4874	867.242902690177	37
3	4881	868.25369398954	36
3	4883	868.926825209703	37
3	4889	871.094196141933	36
3	4895	871.526508369626	37
3	4915	873.977836904852	36
3	4919	874.126191529549	37
3	4929	876.725874689472	38
3	4938	879.325557849395	39
3	4945	879.615702599112	38
3	4950	881.925241009318	39
3	4955	882.456204751505	38
3	4963	884.524924169241	39
3	4976	886.637048491772	38
3	4979	887.124607329164	39
3	4983	887.502897417476	38
3	4997	889.724290489087	39
3	5003	890.977711208684	38
3	5008	891.916997503742	37
3	5015	892.32397364901	38
3	5024	894.155494929804	37
3	5028	894.923656808933	38
3	5040	897.523339968856	39
3	5044	897.544805469848	38
3	5053	900.123023128779	39
3	5056	900.19383008549	38
3	5065	902.722706288702	39
3	5077	904.531799290889	38
3	5080	905.212256871848	37
3	5081	905.322389448625	38
3	5097	907.922072608548	39
3	5108	908.909556589693	38
3	5111	909.196200586838	37
3	5112	910.521755768471	38
3	5118	911.750058742086	37
3	5120	913.121438928394	38
3	5132	915.721122088317	39
3	5144	918.32080524824	40
3	5148	920.920488408163	41
3	5167	921.341047173131	40
3	5170	921.560701164302	39
3	5178	923.520171568086	40
3	5187	926.119854728009	41
3	5196	928.719537887932	42
3	5214	931.319221047855	43
3	5217	932.234981688252	42
3	5224	933.918904207778	43
3	5228	934.571286001279	42
3	5236	936.018975487905	41
3	5243	936.518587367701	42
3	5249	937.469837474414	41
3	5252	938.589603037715	40
3	5257	939.118270527624	41
3	5264	941.717953687547	42
3	5268	942.043768484544	41
3	5274	944.31763684747	42
3	5278	944.67874259984	41
3	5287	946.917320007393	42
3	5290	947.158138999863	41
3	5297	949.517003167316	42
3	5300	950.264981217071	41
3	5306	952.116686327239	42
3	5309	952.188267799562	41
3	5320	954.716369487162	42
3	5323	954.957188479632	41
3	5327	955.618504911128	40
3	5329	955.632130127559	39
3	5338	957.316052647085	40
3	5343	959.915735807008	41
3	5349	962.515418966931	42
3	5352	963.431179607328	41
3	5358	964.404521822693	40
3	5359	965.115102126854	41
3	5369	967.714785286777	42
3	5373	968.245711164836	41
3	5386	969.72741807698	40
3	5390	970.3144684467	41
3	5404	972.647406784541	40
3	5405	972.914151606623	41
3	5409	973.580017604336	40
3	5414	974.861831190299	39
3	5415	975.513834766546	40
3	5426	977.702333342692	39
3	5427	978.113517926469	40
3	5434	980.713201086392	41
3	5449	982.323902947472	40
3	5453	983.312884246315	41
3	5456	984.228644886712	40
3	5467	985.613832731126	39
3	5470	985.856208378263	38
3	5471	985.912567406238	39
3	5474	986.828328046635	38
3	5476	988.512250566161	39
3	5483	989.676308657954	38
3	5484	991.111933726084	39
3	5491	991.812679729832	38
3	5492	993.711616886007	39
3	5502	996.31130004593	40
3	5513	998.142821326724	39
3	5517	998.910983205853	40
3	5528	999.753373336748	39
3	5533	1001.510666365776	40
3	5537	1001.984998679546	39
3	5539	1002.206146245215	38
3	5543	1004.110349525699	39
3	5561	1006.705210531367	38
3	5562	1006.710032685622	39
3	5565	1006.823143639559	38
3	5568	1009.309715845545	39
3	5578	1011.909399005468	40
3	5586	1013.89291394237	39
3	5587	1014.509082165391	40
3	5590	1014.920930111148	39
3	5594	1015.379648294828	38
3	5595	1017.108765325314	39
3	5598	1017.349584317784	38
3	5604	1018.113788980829	37
3	5609	1019.03511349888	36
3	5611	1019.708448485237	37
3	5620	1020.624209125634	36
3	5623	1021.539969766031	35
3	5625	1021.785413821439	34
3	5626	1022.30813164516	35
3	5629	1022.455730406428	34
3	5634	1023.73411240478	33
3	5635	1024.907814805083	34
3	5638	1025.148633797553	33
3	5648	1027.507497965006	34
3	5658	1030.107181124929	35
3	5667	1032.341781393125	34
3	5668	1032.706864284852	35
3	5675	1034.242579282112	34
3	5677	1035.102224850803	33
3	5682	1035.306547444775	34
3	5684	1037.906230604698	35
3	5688	1038.022785697911	34
3	5697	1040.505913764621	35
3	5702	1040.763014278193	34
3	5715	1043.105596924544	35
3	5724	1045.705280084467	36
3	5728	1046.54429215509	35
3	5732	1048.30496324439	36
3	5741	1049.220723884787	35
3	5749	1050.136484525184	34
3	5752	1050.371369583395	33
3	5753	1050.904646404313	34
3	5759	1053.504329564236	35
3	5769	1056.104012724159	36
3	5772	1056.311535759236	35
3	5774	1056.585650709099	34
3	5780	1057.227296399633	33
3	5785	1058.703695884082	34
3	5788	1059.587732329243	33
3	5800	1061.303379044005	34
3	5814	1063.903062203928	35
3	5824	1066.502745363851	36
3	5840	1069.102428523774	37
3	5852	1070.794807154887	36
3	5853	1071.702111683697	37
[...]
11	10025	1969.410162953955	59
11	10035	1971.911446570304	60
11	10038	1972.108245657452	59
11	10047	1974.609529273801	60
11	10079	1980.826535985722	59
11	10091	1983.327819602071	60
11	10106	1985.841207057809	59
11	10112	1988.342490674158	60
11	10128	1990.436976370685	59
11	10134	1992.938259987034	60
11	10137	1993.169086148918	59
11	10143	1994.381519189321	58
11	10146	1995.670369765267	59
11	10164	1998.171653381616	60
11	10208	2009.625819699846	59
11	10228	2012.127103316195	60
11	10236	2013.70317621622	59
11	10244	2016.204459832569	60
11	10260	2018.902542536066	59
11	10266	2021.403826152415	60
11	10269	2021.968369863042	59
11	10283	2024.469653479391	60
11	10314	2031.939837547154	59
11	10328	2034.441121163503	60
11	10342	2038.42510341397	59
11	10348	2040.926387030319	60
11	10382	2050.767653577166	59
11	10389	2052.138950698277	58
11	10404	2053.268937193515	59
11	10416	2055.770220809864	60
11	10437	2060.218918758398	59
11	10446	2062.497126682973	58
11	10447	2062.720202374747	59
11	10459	2065.221485991096	60
11	10487	2070.896205734526	59
11	10498	2073.397489350875	60
11	10535	2081.294938374218	59
11	10553	2083.796221990567	60
11	10576	2091.909487454486	59
11	10579	2094.410771070835	60
11	10624	2102.092403653602	59
11	10632	2104.252037617682	58
11	10633	2104.593687269951	59
11	10640	2107.0949708863	60
11	10660	2109.707310878075	59
11	10663	2110.623071518472	58
11	10669	2112.208594494424	59
11	10672	2112.480404393146	58
11	10681	2114.709878110773	59
11	10700	2117.211161727122	60
11	10703	2117.69050261314	59
11	10706	2120.191786229489	60
11	10709	2120.70877116861	59
11	10724	2123.210054784959	60
11	10737	2125.489552092909	59
11	10743	2127.990835709258	60
11	10746	2128.937137944074	59
11	10760	2130.612734176625	58
11	10762	2130.916621786508	57
11	10767	2131.438421560423	58
11	10779	2133.939705176772	59
11	10789	2136.440988793121	60
11	10795	2137.165504719538	59
11	10804	2139.666788335887	60
11	10823	2142.545856142007	59
11	10834	2145.047139758356	60
11	10866	2148.886700532216	59
11	10870	2149.508054882734	58
11	10876	2151.387984148565	59
11	10891	2153.889267764914	60
11	10916	2160.111463638149	59
11	10931	2162.612747254498	60
11	10997	2174.883532131446	59
11	11006	2177.384815747795	60
11	11009	2178.307338596858	59
11	11017	2179.386690673205	58
11	11021	2180.808622213207	59
11	11035	2183.309905829556	60
11	11092	2194.764072147786	59
11	11102	2195.68099741083	58
11	11105	2197.265355764135	59
11	11110	2198.280680570753	58
11	11118	2199.766639380484	59
11	11131	2202.267922996833	60
11	11182	2215.334989086446	59
11	11199	2217.836272702795	60
11	11216	2221.67782901006	59
11	11228	2224.179112626409	60
11	11231	2224.277512169983	59
11	11234	2226.778795786332	60
11	11240	2227.677539249642	59
11	11244	2227.773061577054	58
11	11252	2230.178822865991	59
11	11264	2232.68010648234	60
11	11278	2234.676244809675	59
11	11280	2235.905906025106	58
11	11288	2237.177528426024	59
11	11292	2239.678812042373	60
11	11297	2239.875611129521	59
11	11308	2242.37689474587	60
11	11319	2244.13427280057	59
11	11326	2246.635556416919	60
11	11352	2250.274343769213	59
11	11356	2252.362639576034	58
11	11358	2252.775627385562	59
11	11367	2255.276911001911	60
11	11394	2260.591006351498	59
11	11403	2263.092289967847	60
11	11406	2263.272759568828	59
11	11414	2264.70518973923	58
11	11420	2265.774043185177	59
11	11423	2265.872442728751	58
11	11426	2266.843949163929	57
11	11430	2268.275326801526	58
11	11442	2270.776610417875	59
11	11450	2272.933556514694	58
11	11453	2273.277894034224	59
11	11463	2275.779177650573	60
11	11473	2277.047739902426	59
11	11481	2278.156214307602	58
11	11487	2279.549023518775	59
11	11498	2281.470541688289	58
11	11499	2282.050307135124	59
11	11511	2284.551590751473	60
11	11521	2286.45156844835	59
11	11531	2288.952852064699	60
11	11534	2289.390290065622	59
11	11539	2291.891573681971	60
11	11555	2293.224031881557	59
11	11568	2295.725315497906	60
11	11581	2297.5568367787	59
11	11591	2300.058120395049	60
11	11595	2300.901752910755	59
11	11599	2301.732840228818	58
11	11607	2303.403036527104	59
11	11623	2305.904320143453	60
11	11695	2322.303757167478	59
11	11707	2324.545803384752	58
11	11710	2324.805040783827	59
11	11715	2325.66515540698	58
11	11721	2327.306324400176	59
11	11731	2328.264838566903	58
11	11733	2329.1805992073	57
11	11735	2329.807608016525	58
11	11749	2332.308891632874	59
11	11763	2334.810175249223	60
11	11788	2338.663571206595	59
11	11790	2338.760490718406	58
11	11801	2341.164854822944	59
11	11804	2341.263254366518	58
11	11812	2342.874674106138	57
11	11819	2343.666138439293	58
11	11830	2346.167422055642	59
11	11839	2348.668705671991	60
11	11856	2351.66198700621	59
11	11865	2354.163270622559	60
11	11888	2359.331407657066	59
11	11893	2361.832691273415	60
11	11907	2364.219041779271	59
11	11910	2365.134802419668	58
11	11916	2366.72032539562	59
11	11919	2367.55977443253	58
11	11927	2369.017360404407	57
11	11931	2369.221609011969	58
11	11942	2371.673957820262	57
11	11943	2371.722892628318	58
11	11954	2374.224176244667	59
11	11964	2375.788141207994	58
11	11966	2376.725459861016	59
11	11983	2379.226743477365	60
11	12008	2384.016507983458	59
11	12017	2385.428352687704	58
11	12022	2386.517791599807	59
11	12031	2389.019075216156	60
11	12048	2392.244874758922	59
11	12053	2394.746158375271	60
11	12061	2395.856600724901	59
11	12071	2398.35788434125	60
11	12080	2399.567893293326	59
11	12091	2402.069176909675	60
11	12102	2404.587424922118	59
11	12105	2405.189754891167	58
11	12117	2406.637663596137	57
11	12119	2407.088708538467	58
11	12129	2409.589992154816	59
11	12138	2412.091275771165	60
11	12144	2412.815791697582	59
11	12155	2415.317075313931	60
11	12177	2420.104066024646	59
11	12189	2422.605349640995	60
11	12201	2425.158341860778	59
11	12215	2427.659625477127	60
11	12244	2433.386708636242	59
11	12254	2435.887992252591	60
11	12272	2440.051214443592	59
11	12290	2441.986515110192	58
11	12292	2442.552498059941	59
11	12301	2445.05378167629	60
11	12307	2445.729258799438	59
11	12316	2448.230542415787	60
11	12338	2453.957625574902	59
11	12352	2456.458909191251	60
11	12371	2462.185992350366	59
11	12381	2464.687275966715	60
11	12399	2468.647729202745	59
11	12412	2471.149012819094	60
11	12444	2476.446778682514	59
11	12452	2477.362539322911	58
11	12457	2478.642725901294	57
11	12461	2478.948062298863	58
11	12465	2481.449345915212	59
11	12481	2483.950629531561	60
11	12484	2484.405136927058	59
11	12492	2485.833706397582	58
11	12498	2486.906420543407	59
11	12523	2489.407704159756	60
11	12527	2490.021420983369	59
11	12541	2492.522704599718	60
11	12558	2497.244243961898	59
11	12569	2499.745527578247	60
11	12599	2504.173477916927	59
11	12609	2505.614447835491	58
11	12611	2506.674761533276	59
11	12625	2508.50628281407	58
11	12626	2509.176045149625	59
11	12633	2511.677328765974	60
11	12643	2513.599978778699	59
11	12650	2515.670376390882	58
11	12652	2516.101262395048	59
11	12660	2518.091287000148	58
11	12664	2518.602546011397	59
11	12682	2521.103829627746	60
11	12713	2528.012926554078	59
11	12720	2530.514210170427	60
11	12744	2534.555568841217	59
11	12750	2536.241293329542	58
11	12751	2537.056852457566	59
11	12764	2539.558136073915	60
11	12770	2540.355476717274	59
11	12779	2541.438857680589	58
11	12780	2542.856760333623	59
11	12789	2545.358043949972	60
11	12826	2552.69802688047	59
11	12839	2555.199310496819	60
11	12849	2556.812210268202	59
11	12856	2559.313493884551	60
11	12955	2583.381921166412	59
11	12965	2585.883204782761	60
11	12995	2593.83986075779	59
11	13001	2594.580383360657	58
11	13006	2596.341144374139	59
11	13012	2597.521461772034	58
11	13030	2598.842427990488	59
11	13042	2601.231570358818	58
11	13043	2601.343711606837	59
11	13057	2603.844995223186	60
11	13064	2606.182410920986	59
11	13068	2607.421986632189	58
11	13073	2608.683694537335	59
11	13086	2611.184978153684	60
11	13105	2614.41077769645	59
11	13114	2616.912061312799	60
11	13197	2635.027451437817	59
11	13203	2637.528735054166	60
11	13220	2639.095878022842	59
11	13229	2640.699596722919	58
11	13237	2641.597161639191	59
11	13244	2643.210061410574	58
11	13245	2644.09844525554	59
11	13252	2646.599728871889	60
11	13260	2647.121609410412	59
11	13262	2647.324244798306	58
11	13267	2649.622893026761	59
11	13274	2650.625550397355	58
11	13282	2652.12417664311	59
11	13296	2654.140994197675	58
11	13298	2654.625460259459	59
11	13303	2655.056754838072	58
11	13305	2655.55261157377	57
11	13306	2657.126743875808	58
11	13318	2659.628027492157	59
11	13337	2662.129311108506	60
11	13344	2663.250399711695	59
11	13357	2665.751683328044	60
11	13366	2667.895161736966	59
11	13374	2670.396445353315	60
11	13380	2671.423015676739	59
11	13391	2673.924299293088	60
11	13423	2680.237711900162	59
11	13439	2682.738995516511	60
11	13492	2695.507980314261	59
11	13504	2696.69444545109	58
11	13512	2698.00926393061	59
11	13525	2700.510547546959	60
11	13539	2703.568016314199	59
11	13549	2706.069299930548	60
11	13560	2709.036995614286	59
11	13577	2711.538279230635	60
11	13627	2721.379545777482	59
11	13634	2723.416678875199	58
11	13638	2723.880829393831	59
11	13641	2724.777327222632	58
11	13648	2726.38211301018	59
11	13653	2726.62429974608	58
11	13664	2728.883396626529	59
11	13678	2731.384680242878	60
11	13725	2741.950462716142	59
11	13730	2743.653201619493	58
11	13741	2744.451746332491	59
11	13755	2746.813827314506	58
11	13756	2746.95302994884	59
11	13763	2749.454313565189	60
11	13784	2754.293012879338	59
11	13787	2756.794296495687	60
11	13847	2767.61129259389	59
11	13852	2770.112576210239	60
11	13855	2770.749746430266	59
11	13866	2773.251030046615	60
11	13872	2774.265719342309	59
11	13881	2774.863929817998	58
11	13889	2776.151931820676	57
11	13890	2776.767002958658	58
11	13896	2777.711005366319	57
11	13906	2779.268286575007	58
11	13915	2781.33548964512	57
11	13917	2781.769570191356	58
11	13931	2783.092296593462	57
11	13934	2783.209391553428	56
11	13938	2784.270853807705	57
11	13947	2786.772137424054	58
11	13958	2789.273421040403	59
11	13966	2791.008441033197	58
11	13975	2791.774704656752	59
11	13989	2794.275988273101	60
11	14052	2807.777396919854	59
11	14065	2810.278680536203	60
11	14091	2816.005763695318	59
11	14094	2818.507047311667	60
11	14178	2835.203054751888	59
11	14180	2836.576680633978	58
11	14191	2837.704338368237	59
11	14195	2837.802737911811	58
11	14200	2840.205621984586	59
11	14204	2840.667093025808	58
11	14210	2842.706905600935	59
11	14221	2844.805047409442	58
11	14226	2845.208189217284	59
11	14230	2845.60178739158	58
11	14233	2845.826612859971	57
11	14237	2847.709472833633	58
11	14240	2848.201470551503	57
11	14248	2850.210756449982	58
11	14259	2852.712040066331	59
11	14263	2853.033414184906	58
11	14274	2855.21332368268	59
11	14295	2857.714607299029	60
11	14309	2861.199886351118	59
11	14311	2861.26178096037	58
11	14317	2863.701169967467	59
11	14328	2865.375964348102	58
11	14332	2865.801099691847	57
11	14333	2866.202453583816	58
11	14341	2868.703737200165	59
11	14344	2868.998935830887	58
11	14355	2871.205020816514	59
11	14378	2873.706304432863	60
11	14417	2881.83269789903	59
11	14426	2884.333981515379	60
11	14430	2884.597034790425	59
11	14438	2887.098318406774	60
11	14447	2889.053463929657	59
11	14455	2891.554747546006	60
11	14482	2895.367575130493	59
11	14491	2897.59545059004	58
11	14492	2897.868858746842	59
11	14495	2898.289431449958	58
11	14504	2900.370142363191	59
11	14524	2902.794816909886	58
11	14525	2902.87142597954	59
11	14534	2905.372709595889	60
11	14537	2905.394500069809	59
11	14542	2906.517798225422	58
11	14549	2907.895783686158	59
11	14558	2910.397067302507	60
11	14580	2914.746165000886	59
11	14584	2915.661125398529	58
11	14589	2917.247448617235	59
11	14599	2918.860348388618	58
11	14600	2919.748732233584	59
11	14606	2921.311044532223	58
11	14613	2922.250015849933	59
11	14627	2924.751299466282	60
11	14658	2931.202898551814	59
11	14665	2933.704182168163	60
11	14668	2933.991014828962	59
11	14676	2936.492298445311	60
11	14685	2937.506458629282	59
11	14690	2939.431265327278	58
11	14691	2940.007742245631	59
11	14703	2942.50902586198	60
11	14714	2943.54544871501	59
11	14722	2946.046732331359	60
11	14756	2953.568625134789	59
11	14760	2954.788480108346	58
11	14773	2956.069908751138	59
11	14786	2958.571192367487	60
11	14812	2965.028925973862	59
11	14816	2966.065278158603	58
11	14822	2967.530209590211	59
11	14826	2968.230549041402	58
11	14834	2970.03149320656	59
11	14849	2972.219287821017	58
11	14856	2972.532776822909	59
11	14860	2973.135048461414	58
11	14864	2975.034060439258	59
11	14874	2977.535344055607	60
11	14890	2980.573099204598	59
11	14893	2980.785311707576	58
11	14899	2983.074382820947	59
11	14915	2985.575666437296	60
11	14924	2986.343640283487	59
11	14929	2988.844923899836	60
11	14963	2997.029832755526	59
11	14970	2998.983093827037	58
11	14974	2999.531116371875	59
11	14985	3001.144016143258	58
11	14987	3001.411457857442	57
11	14991	3002.032399988224	58
11	15001	3004.533683604573	59
11	15016	3007.034967220922	60
11	15020	3007.568139335072	59
11	15034	3010.069422951421	60
11	15041	3013.486566306454	59
11	15049	3014.581192786575	58
11	15056	3015.987849922803	59
11	15078	3018.489133539152	60
11	15093	3021.714933081918	59
11	15096	3022.380242266344	58
11	15099	3024.216216698267	59
11	15108	3026.717500314616	60
11	15138	3033.144533467514	59
11	15157	3035.378658065959	58
11	15158	3035.645817083863	59
11	15162	3036.294418706356	58
11	15170	3038.147100700212	59
11	15173	3038.171666632846	58
11	15180	3040.648384316561	59
11	15197	3043.14966793291	60
11	15254	3056.176123345343	59
11	15259	3058.677406961692	60
11	15262	3058.742583571506	59
11	15274	3061.243867187855	60
11	15277	3062.856766959238	59
11	15290	3065.358050575587	60
11	15320	3069.174539144958	59
11	15333	3071.675822761307	60
11	15343	3075.199317122434	59
11	15356	3077.700600738783	60
11	15365	3079.313500510166	59
11	15371	3081.814784126515	60
11	15378	3083.427683897898	59
11	15383	3084.231239087753	58
11	15393	3085.928967514247	59
11	15399	3088.430251130596	60
11	15438	3095.770234061094	59
11	15444	3098.271517677443	60
11	15482	3106.544923574426	59
11	15487	3107.460684214823	58
11	15492	3109.046207190775	59
11	15496	3111.547490807124	60
11	15517	3113.614693877237	59
11	15530	3116.115977493586	60
11	15533	3116.341150999754	59
11	15541	3118.842434616103	60
11	15558	3122.083962983815	59
11	15563	3124.569517775218	58
11	15564	3124.585246600164	59
11	15581	3127.086530216513	60
11	15615	3134.82400478567	59
11	15633	3137.325288402019	60
11	15648	3141.026251326146	59
11	15659	3143.527534942495	60
11	15686	3148.963545391292	59
11	15689	3149.25461810161	58
11	15700	3151.464829007641	59
11	15712	3153.96611262399	60
11	15723	3156.033315694103	59
11	15732	3158.534599310452	60
11	15749	3163.103085996914	59
11	15764	3165.362816062109	58
11	15765	3165.604369613263	59
11	15781	3168.105653229612	60
11	15792	3169.82553504027	59
11	15795	3170.172856299725	58
11	15798	3171.088616940122	57
11	15802	3172.326818656619	58
11	15808	3174.828102272968	59
11	15820	3177.329385889317	60
11	15825	3178.053901815734	59
11	15836	3180.555185432083	60
11	15856	3183.56059818157	59
11	15859	3186.061881797919	60
11	15865	3186.282268591198	59
11	15874	3188.783552207547	60
11	15887	3191.359647661339	59
11	15893	3193.860931277688	60
11	15946	3204.358063460954	59
11	15954	3206.859347077303	60
11	15983	3212.360903892812	59
11	15989	3214.862187509161	60
11	16010	3219.195735693054	59
11	16012	3219.661248419402	58
11	16021	3221.697019309403	59
11	16029	3224.198302925752	60
11	16098	3239.766652631714	59
11	16112	3242.267936248063	60
11	16137	3247.995019407178	59
11	16146	3250.496303023527	60
11	16166	3255.010099933457	59
11	16175	3257.511383549806	60
11	16183	3258.951409819337	59
11	16186	3260.015640859166	58
11	16198	3261.452693435686	59
11	16206	3263.953977052035	60
11	16255	3276.21941084189	59
11	16260	3276.794303121302	58
11	16264	3278.720694458239	59
11	16270	3279.748875098721	58
11	16273	3281.221978074588	59
11	16285	3283.723261690937	60
11	16324	3292.273221461732	59
11	16328	3293.25103667223	58
11	16333	3294.774505078081	59
11	16337	3295.346974058259	58
11	16343	3297.27578869443	59
11	16359	3299.777072310779	60
11	16385	3304.498492053134	59
11	16393	3305.593586835426	58
11	16396	3305.606963442122	57
11	16400	3306.999775669483	58
11	16406	3308.402011763015	57
11	16407	3309.501059285832	58
11	16421	3310.945073017797	57
11	16422	3312.002342902181	58
11	16432	3313.82195361089	57
11	16434	3314.50362651853	58
11	16444	3317.004910134879	59
11	16462	3318.836431415673	58
11	16464	3319.506193751228	59
11	16473	3322.007477367577	60
11	16528	3332.903444484452	59
11	16534	3334.39287054955	58
11	16538	3335.404728100801	59
11	16549	3337.90601171715	60
11	16570	3340.659592365581	59
11	16579	3342.141270936873	58
11	16585	3343.16087598193	59
11	16590	3345.662159598279	60
11	16608	3347.832874510397	59
11	16617	3350.334158126746	60
11	16650	3357.739369896411	59
11	16663	3360.24065351276	60
11	16667	3361.056654475622	59
11	16686	3363.557938091971	60
11	16744	3375.937152015872	59
11	16752	3378.438435632221	60
11	16771	3383.763071202334	59
11	16779	3386.264354818683	60
11	16796	3388.935567815487	59
11	16808	3390.751472809187	58
11	16809	3391.436851431836	59
11	16812	3391.53525097541	58
11	16814	3391.991437977798	57
11	16823	3393.938135048185	58
11	16852	3396.439418664534	59
11	16855	3397.321266630074	58
11	16860	3398.940702280883	59
11	16867	3401.441985897232	60
11	16903	3408.448171528726	59
11	16912	3410.949455145075	60
11	16919	3412.562354916458	59
11	16922	3415.063638532807	60
11	16994	3429.019088467386	59
11	17006	3431.520372083735	60
11	17009	3431.754357503732	59
11	17017	3433.130181534178	58
11	17019	3433.133271855118	57
11	17020	3434.255641120081	58
11	17026	3436.75692473643	59
11	17030	3437.24745524285	58
11	17050	3439.258208352779	59
11	17064	3441.759491969128	60
11	17068	3441.838178429426	59
11	17074	3444.339462045775	60
11	17121	3453.561124474562	59
11	17127	3456.062408090911	60
11	17161	3461.932555569242	59
11	17171	3464.433839185591	60
11	17176	3466.046738956974	59
11	17186	3468.548022573323	60
11	17212	3472.125428933023	59
11	17223	3474.626712549372	60
11	17233	3478.38928912017	59
11	17241	3480.890572736519	60
11	17244	3481.242749623409	59
11	17256	3483.744033239758	60
11	17279	3488.31251992622	59
11	17291	3490.813803542569	60
11	17297	3492.922894212407	59
11	17315	3495.424177828756	60
11	17340	3501.947495378411	59
11	17352	3504.44877899476	60
11	17395	3515.416939609758	59
11	17402	3517.918223226107	60
11	17427	3521.51940897156	59
11	17434	3523.645306385222	58
11	17436	3523.661371440275	57
11	17438	3524.020692587909	58
11	17442	3526.521976204258	59
11	17449	3527.759489772954	58
11	17459	3529.023259820607	59
11	17472	3531.524543436956	60
11	17484	3534.205075980977	59
11	17492	3536.706359597326	60
11	17522	3543.852890519822	59
11	17533	3544.216223323882	58
11	17540	3545.786442989105	57
11	17541	3546.354174136171	58
11	17550	3548.85545775252	59
11	17563	3551.356741368869	60
11	17585	3555.315290050559	59
11	17593	3557.816573666908	60
11	17619	3560.67295687481	59
11	17630	3563.174240491159	60
11	17659	3568.313705850174	59
11	17667	3570.814989466523	60
11	17679	3573.015507038006	59
11	17685	3573.51307217002	58
11	17691	3575.516790654355	59
11	17697	3578.018074270704	60
11	17712	3580.219533862763	59
11	17728	3582.720817479112	60
11	17770	3591.710854289481	59
11	17784	3594.21213790583	60
11	17787	3594.310537449404	59
11	17793	3596.811821065753	60
11	17804	3598.720237186109	59
